WIDTH  = 8 ;
DEPTH = 1500 ; 
ADDRESS_RADIX = HEX ; 
DATA_RADIX = DECIMAL ; 
CONTENT BEGIN  

 0  : 0; 
 1  : 0; 
 2  : 0; 
 3  : 0; 
 4  : 0; 
 5  : 0; 
 6  : 0; 
 7  : 0; 
 8  : 0; 
 9  : 0; 
 A  : 0; 
 B  : 0; 
 C  : 0; 
 D  : 0; 
 E  : 0; 
 F  : 0; 
 10  : 0; 
 11  : 0; 
 12  : 0; 
 13  : 0; 
 14  : 0; 
 15  : 0; 
 16  : 0; 
 17  : 0; 
 18  : 0; 
 19  : 0; 
 1A  : 0; 
 1B  : 0; 
 1C  : 0; 
 1D  : 0; 
 1E  : 0; 
 1F  : 0; 
 20  : 0; 
 21  : 0; 
 22  : 0; 
 23  : 0; 
 24  : 0; 
 25  : 0; 
 26  : 0; 
 27  : 0; 
 28  : 0; 
 29  : 0; 
 2A  : 0; 
 2B  : 0; 
 2C  : 0; 
 2D  : 0; 
 2E  : 0; 
 2F  : 0; 
 30  : 0; 
 31  : 0; 
 32  : 0; 
 33  : 0; 
 34  : 0; 
 35  : 0; 
 36  : 0; 
 37  : 0; 
 38  : 0; 
 39  : 0; 
 3A  : 0; 
 3B  : 0; 
 3C  : 0; 
 3D  : 0; 
 3E  : 0; 
 3F  : 0; 
 40  : 0; 
 41  : 0; 
 42  : 0; 
 43  : 0; 
 44  : 0; 
 45  : 0; 
 46  : 0; 
 47  : 0; 
 48  : 0; 
 49  : 0; 
 4A  : 0; 
 4B  : 0; 
 4C  : 6; 
 4D  : 9; 
 4E  : 10; 
 4F  : 10; 
 50  : 10; 
 51  : 10; 
 52  : 10; 
 53  : 17; 
 54  : 0; 
 55  : 0; 
 56  : 0; 
 57  : 0; 
 58  : 0; 
 59  : 0; 
 5A  : 0; 
 5B  : 0; 
 5C  : 0; 
 5D  : 0; 
 5E  : 0; 
 5F  : 0; 
 60  : 0; 
 61  : 0; 
 62  : 0; 
 63  : 0; 
 64  : 0; 
 65  : 0; 
 66  : 0; 
 67  : 0; 
 68  : 0; 
 69  : 0; 
 6A  : 0; 
 6B  : 0; 
 6C  : 0; 
 6D  : 0; 
 6E  : 0; 
 6F  : 0; 
 70  : 0; 
 71  : 0; 
 72  : 0; 
 73  : 0; 
 74  : 0; 
 75  : 0; 
 76  : 0; 
 77  : 0; 
 78  : 0; 
 79  : 0; 
 7A  : 0; 
 7B  : 0; 
 7C  : 0; 
 7D  : 0; 
 7E  : 0; 
 7F  : 0; 
 80  : 0; 
 81  : 0; 
 82  : 0; 
 83  : 0; 
 84  : 0; 
 85  : 0; 
 86  : 0; 
 87  : 0; 
 88  : 0; 
 89  : 0; 
 8A  : 0; 
 8B  : 0; 
 8C  : 0; 
 8D  : 0; 
 8E  : 0; 
 8F  : 0; 
 90  : 0; 
 91  : 0; 
 92  : 0; 
 93  : 0; 
 94  : 0; 
 95  : 0; 
 96  : 0; 
 97  : 0; 
 98  : 20; 
 99  : 19; 
 9A  : 5; 
 9B  : 0; 
 9C  : 0; 
 9D  : 0; 
 9E  : 0; 
 9F  : 0; 
 A0  : 0; 
 A1  : 0; 
 A2  : 0; 
 A3  : 0; 
 A4  : 0; 
 A5  : 0; 
 A6  : 0; 
 A7  : 0; 
 A8  : 0; 
 A9  : 0; 
 AA  : 0; 
 AB  : 0; 
 AC  : 0; 
 AD  : 0; 
 AE  : 0; 
 AF  : 0; 
 B0  : 0; 
 B1  : 0; 
 B2  : 0; 
 B3  : 0; 
 B4  : 0; 
 B5  : 0; 
 B6  : 0; 
 B7  : 0; 
 B8  : 0; 
 B9  : 0; 
 BA  : 0; 
 BB  : 0; 
 BC  : 0; 
 BD  : 0; 
 BE  : 0; 
 BF  : 0; 
 C0  : 0; 
 C1  : 0; 
 C2  : 0; 
 C3  : 0; 
 C4  : 0; 
 C5  : 0; 
 C6  : 0; 
 C7  : 0; 
 C8  : 0; 
 C9  : 0; 
 CA  : 0; 
 CB  : 0; 
 CC  : 0; 
 CD  : 0; 
 CE  : 0; 
 CF  : 0; 
 D0  : 0; 
 D1  : 0; 
 D2  : 0; 
 D3  : 0; 
 D4  : 0; 
 D5  : 0; 
 D6  : 0; 
 D7  : 0; 
 D8  : 0; 
 D9  : 0; 
 DA  : 0; 
 DB  : 0; 
 DC  : 0; 
 DD  : 0; 
 DE  : 0; 
 DF  : 0; 
 E0  : 0; 
 E1  : 0; 
 E2  : 0; 
 E3  : 20; 
 E4  : 10; 
 E5  : 14; 
 E6  : 0; 
 E7  : 0; 
 E8  : 0; 
 E9  : 0; 
 EA  : 0; 
 EB  : 0; 
 EC  : 0; 
 ED  : 0; 
 EE  : 0; 
 EF  : 0; 
 F0  : 0; 
 F1  : 0; 
 F2  : 0; 
 F3  : 0; 
 F4  : 0; 
 F5  : 0; 
 F6  : 0; 
 F7  : 0; 
 F8  : 0; 
 F9  : 0; 
 FA  : 0; 
 FB  : 0; 
 FC  : 0; 
 FD  : 0; 
 FE  : 0; 
 FF  : 0; 
 100  : 0; 
 101  : 0; 
 102  : 0; 
 103  : 0; 
 104  : 0; 
 105  : 0; 
 106  : 0; 
 107  : 0; 
 108  : 0; 
 109  : 0; 
 10A  : 0; 
 10B  : 0; 
 10C  : 0; 
 10D  : 0; 
 10E  : 0; 
 10F  : 0; 
 110  : 0; 
 111  : 0; 
 112  : 0; 
 113  : 0; 
 114  : 0; 
 115  : 0; 
 116  : 0; 
 117  : 0; 
 118  : 0; 
 119  : 0; 
 11A  : 0; 
 11B  : 0; 
 11C  : 0; 
 11D  : 0; 
 11E  : 0; 
 11F  : 0; 
 120  : 0; 
 121  : 0; 
 122  : 0; 
 123  : 0; 
 124  : 0; 
 125  : 0; 
 126  : 0; 
 127  : 0; 
 128  : 0; 
 129  : 0; 
 12A  : 0; 
 12B  : 0; 
 12C  : 0; 
 12D  : 0; 
 12E  : 20; 
 12F  : 10; 
 130  : 14; 
 131  : 0; 
 132  : 0; 
 133  : 0; 
 134  : 0; 
 135  : 13; 
 136  : 10; 
 137  : 10; 
 138  : 10; 
 139  : 10; 
 13A  : 17; 
 13B  : 0; 
 13C  : 6; 
 13D  : 9; 
 13E  : 10; 
 13F  : 10; 
 140  : 10; 
 141  : 14; 
 142  : 0; 
 143  : 0; 
 144  : 0; 
 145  : 20; 
 146  : 10; 
 147  : 10; 
 148  : 10; 
 149  : 10; 
 14A  : 19; 
 14B  : 5; 
 14C  : 3; 
 14D  : 22; 
 14E  : 11; 
 14F  : 7; 
 150  : 0; 
 151  : 3; 
 152  : 22; 
 153  : 11; 
 154  : 7; 
 155  : 0; 
 156  : 6; 
 157  : 9; 
 158  : 10; 
 159  : 10; 
 15A  : 10; 
 15B  : 14; 
 15C  : 0; 
 15D  : 13; 
 15E  : 10; 
 15F  : 10; 
 160  : 10; 
 161  : 10; 
 162  : 10; 
 163  : 10; 
 164  : 14; 
 165  : 0; 
 166  : 0; 
 167  : 0; 
 168  : 1; 
 169  : 10; 
 16A  : 10; 
 16B  : 10; 
 16C  : 14; 
 16D  : 1; 
 16E  : 10; 
 16F  : 11; 
 170  : 7; 
 171  : 0; 
 172  : 13; 
 173  : 10; 
 174  : 17; 
 175  : 0; 
 176  : 0; 
 177  : 0; 
 178  : 0; 
 179  : 20; 
 17A  : 10; 
 17B  : 10; 
 17C  : 10; 
 17D  : 10; 
 17E  : 11; 
 17F  : 7; 
 180  : 3; 
 181  : 22; 
 182  : 4; 
 183  : 16; 
 184  : 0; 
 185  : 0; 
 186  : 6; 
 187  : 9; 
 188  : 19; 
 189  : 5; 
 18A  : 0; 
 18B  : 20; 
 18C  : 19; 
 18D  : 5; 
 18E  : 0; 
 18F  : 20; 
 190  : 10; 
 191  : 14; 
 192  : 0; 
 193  : 6; 
 194  : 9; 
 195  : 4; 
 196  : 16; 
 197  : 3; 
 198  : 22; 
 199  : 17; 
 19A  : 0; 
 19B  : 0; 
 19C  : 15; 
 19D  : 8; 
 19E  : 11; 
 19F  : 7; 
 1A0  : 6; 
 1A1  : 9; 
 1A2  : 19; 
 1A3  : 5; 
 1A4  : 0; 
 1A5  : 20; 
 1A6  : 19; 
 1A7  : 5; 
 1A8  : 3; 
 1A9  : 22; 
 1AA  : 4; 
 1AB  : 16; 
 1AC  : 0; 
 1AD  : 3; 
 1AE  : 22; 
 1AF  : 4; 
 1B0  : 16; 
 1B1  : 0; 
 1B2  : 20; 
 1B3  : 10; 
 1B4  : 14; 
 1B5  : 0; 
 1B6  : 0; 
 1B7  : 0; 
 1B8  : 15; 
 1B9  : 8; 
 1BA  : 19; 
 1BB  : 5; 
 1BC  : 0; 
 1BD  : 20; 
 1BE  : 10; 
 1BF  : 14; 
 1C0  : 0; 
 1C1  : 0; 
 1C2  : 0; 
 1C3  : 0; 
 1C4  : 20; 
 1C5  : 10; 
 1C6  : 14; 
 1C7  : 0; 
 1C8  : 0; 
 1C9  : 0; 
 1CA  : 0; 
 1CB  : 15; 
 1CC  : 8; 
 1CD  : 11; 
 1CE  : 7; 
 1CF  : 0; 
 1D0  : 0; 
 1D1  : 13; 
 1D2  : 10; 
 1D3  : 17; 
 1D4  : 0; 
 1D5  : 0; 
 1D6  : 13; 
 1D7  : 10; 
 1D8  : 2; 
 1D9  : 3; 
 1DA  : 22; 
 1DB  : 11; 
 1DC  : 7; 
 1DD  : 0; 
 1DE  : 6; 
 1DF  : 9; 
 1E0  : 4; 
 1E1  : 16; 
 1E2  : 3; 
 1E3  : 22; 
 1E4  : 17; 
 1E5  : 0; 
 1E6  : 0; 
 1E7  : 15; 
 1E8  : 8; 
 1E9  : 11; 
 1EA  : 7; 
 1EB  : 13; 
 1EC  : 10; 
 1ED  : 17; 
 1EE  : 0; 
 1EF  : 0; 
 1F0  : 13; 
 1F1  : 10; 
 1F2  : 2; 
 1F3  : 15; 
 1F4  : 8; 
 1F5  : 11; 
 1F6  : 7; 
 1F7  : 0; 
 1F8  : 6; 
 1F9  : 9; 
 1FA  : 4; 
 1FB  : 16; 
 1FC  : 13; 
 1FD  : 10; 
 1FE  : 17; 
 1FF  : 0; 
 200  : 0; 
 201  : 0; 
 202  : 0; 
 203  : 0; 
 204  : 20; 
 205  : 10; 
 206  : 14; 
 207  : 6; 
 208  : 9; 
 209  : 11; 
 20A  : 7; 
 20B  : 0; 
 20C  : 0; 
 20D  : 0; 
 20E  : 0; 
 20F  : 20; 
 210  : 10; 
 211  : 14; 
 212  : 0; 
 213  : 0; 
 214  : 0; 
 215  : 0; 
 216  : 15; 
 217  : 8; 
 218  : 11; 
 219  : 7; 
 21A  : 0; 
 21B  : 0; 
 21C  : 1; 
 21D  : 10; 
 21E  : 10; 
 21F  : 10; 
 220  : 10; 
 221  : 10; 
 222  : 10; 
 223  : 2; 
 224  : 13; 
 225  : 10; 
 226  : 17; 
 227  : 0; 
 228  : 0; 
 229  : 6; 
 22A  : 9; 
 22B  : 4; 
 22C  : 16; 
 22D  : 3; 
 22E  : 22; 
 22F  : 17; 
 230  : 0; 
 231  : 0; 
 232  : 15; 
 233  : 8; 
 234  : 11; 
 235  : 7; 
 236  : 1; 
 237  : 10; 
 238  : 10; 
 239  : 10; 
 23A  : 10; 
 23B  : 10; 
 23C  : 10; 
 23D  : 2; 
 23E  : 15; 
 23F  : 8; 
 240  : 11; 
 241  : 7; 
 242  : 0; 
 243  : 6; 
 244  : 9; 
 245  : 4; 
 246  : 16; 
 247  : 1; 
 248  : 10; 
 249  : 17; 
 24A  : 0; 
 24B  : 0; 
 24C  : 0; 
 24D  : 0; 
 24E  : 0; 
 24F  : 3; 
 250  : 22; 
 251  : 17; 
 252  : 3; 
 253  : 22; 
 254  : 2; 
 255  : 0; 
 256  : 0; 
 257  : 0; 
 258  : 0; 
 259  : 0; 
 25A  : 20; 
 25B  : 10; 
 25C  : 14; 
 25D  : 0; 
 25E  : 0; 
 25F  : 0; 
 260  : 0; 
 261  : 15; 
 262  : 8; 
 263  : 11; 
 264  : 7; 
 265  : 0; 
 266  : 0; 
 267  : 13; 
 268  : 10; 
 269  : 17; 
 26A  : 0; 
 26B  : 0; 
 26C  : 0; 
 26D  : 0; 
 26E  : 0; 
 26F  : 13; 
 270  : 10; 
 271  : 11; 
 272  : 7; 
 273  : 0; 
 274  : 6; 
 275  : 9; 
 276  : 4; 
 277  : 16; 
 278  : 3; 
 279  : 22; 
 27A  : 11; 
 27B  : 7; 
 27C  : 0; 
 27D  : 15; 
 27E  : 8; 
 27F  : 11; 
 280  : 7; 
 281  : 13; 
 282  : 10; 
 283  : 17; 
 284  : 0; 
 285  : 0; 
 286  : 0; 
 287  : 0; 
 288  : 0; 
 289  : 15; 
 28A  : 8; 
 28B  : 11; 
 28C  : 7; 
 28D  : 0; 
 28E  : 6; 
 28F  : 9; 
 290  : 4; 
 291  : 16; 
 292  : 13; 
 293  : 10; 
 294  : 11; 
 295  : 7; 
 296  : 0; 
 297  : 0; 
 298  : 0; 
 299  : 0; 
 29A  : 0; 
 29B  : 20; 
 29C  : 4; 
 29D  : 21; 
 29E  : 4; 
 29F  : 16; 
 2A0  : 0; 
 2A1  : 0; 
 2A2  : 0; 
 2A3  : 0; 
 2A4  : 6; 
 2A5  : 9; 
 2A6  : 10; 
 2A7  : 14; 
 2A8  : 0; 
 2A9  : 0; 
 2AA  : 0; 
 2AB  : 0; 
 2AC  : 3; 
 2AD  : 22; 
 2AE  : 11; 
 2AF  : 7; 
 2B0  : 0; 
 2B1  : 0; 
 2B2  : 6; 
 2B3  : 9; 
 2B4  : 10; 
 2B5  : 14; 
 2B6  : 0; 
 2B7  : 0; 
 2B8  : 0; 
 2B9  : 0; 
 2BA  : 15; 
 2BB  : 8; 
 2BC  : 10; 
 2BD  : 14; 
 2BE  : 0; 
 2BF  : 15; 
 2C0  : 8; 
 2C1  : 4; 
 2C2  : 16; 
 2C3  : 15; 
 2C4  : 8; 
 2C5  : 19; 
 2C6  : 5; 
 2C7  : 0; 
 2C8  : 15; 
 2C9  : 8; 
 2CA  : 11; 
 2CB  : 7; 
 2CC  : 6; 
 2CD  : 9; 
 2CE  : 10; 
 2CF  : 14; 
 2D0  : 0; 
 2D1  : 0; 
 2D2  : 0; 
 2D3  : 0; 
 2D4  : 15; 
 2D5  : 8; 
 2D6  : 11; 
 2D7  : 7; 
 2D8  : 0; 
 2D9  : 6; 
 2DA  : 9; 
 2DB  : 4; 
 2DC  : 16; 
 2DD  : 6; 
 2DE  : 9; 
 2DF  : 10; 
 2E0  : 2; 
 2E1  : 0; 
 2E2  : 0; 
 2E3  : 0; 
 2E4  : 0; 
 2E5  : 0; 
 2E6  : 13; 
 2E7  : 19; 
 2E8  : 18; 
 2E9  : 17; 
 2EA  : 0; 
 2EB  : 0; 
 2EC  : 0; 
 2ED  : 0; 
 2EE  : 0; 
 2EF  : 6; 
 2F0  : 9; 
 2F1  : 10; 
 2F2  : 14; 
 2F3  : 0; 
 2F4  : 0; 
 2F5  : 0; 
 2F6  : 0; 
 2F7  : 3; 
 2F8  : 22; 
 2F9  : 11; 
 2FA  : 7; 
 2FB  : 0; 
 2FC  : 0; 
 2FD  : 0; 
 2FE  : 0; 
 2FF  : 20; 
 300  : 10; 
 301  : 10; 
 302  : 10; 
 303  : 10; 
 304  : 14; 
 305  : 0; 
 306  : 15; 
 307  : 8; 
 308  : 10; 
 309  : 10; 
 30A  : 10; 
 30B  : 10; 
 30C  : 4; 
 30D  : 16; 
 30E  : 0; 
 30F  : 13; 
 310  : 10; 
 311  : 10; 
 312  : 10; 
 313  : 10; 
 314  : 10; 
 315  : 4; 
 316  : 16; 
 317  : 0; 
 318  : 0; 
 319  : 20; 
 31A  : 10; 
 31B  : 10; 
 31C  : 10; 
 31D  : 10; 
 31E  : 14; 
 31F  : 3; 
 320  : 22; 
 321  : 11; 
 322  : 7; 
 323  : 0; 
 324  : 15; 
 325  : 8; 
 326  : 4; 
 327  : 16; 
 328  : 0; 
 329  : 0; 
 32A  : 20; 
 32B  : 10; 
 32C  : 10; 
 32D  : 10; 
 32E  : 17; 
 32F  : 0; 
 330  : 0; 
 331  : 15; 
 332  : 8; 
 333  : 10; 
 334  : 14; 
 335  : 0; 
 336  : 0; 
 337  : 0; 
 338  : 0; 
 339  : 0; 
 33A  : 0; 
 33B  : 0; 
 33C  : 0; 
 33D  : 0; 
 33E  : 0; 
 33F  : 0; 
 340  : 0; 
 341  : 0; 
 342  : 0; 
 343  : 0; 
 344  : 0; 
 345  : 0; 
 346  : 0; 
 347  : 0; 
 348  : 0; 
 349  : 0; 
 34A  : 0; 
 34B  : 0; 
 34C  : 0; 
 34D  : 0; 
 34E  : 0; 
 34F  : 0; 
 350  : 0; 
 351  : 0; 
 352  : 0; 
 353  : 0; 
 354  : 0; 
 355  : 6; 
 356  : 9; 
 357  : 4; 
 358  : 16; 
 359  : 0; 
 35A  : 0; 
 35B  : 0; 
 35C  : 0; 
 35D  : 0; 
 35E  : 0; 
 35F  : 0; 
 360  : 0; 
 361  : 0; 
 362  : 0; 
 363  : 0; 
 364  : 0; 
 365  : 0; 
 366  : 0; 
 367  : 0; 
 368  : 0; 
 369  : 0; 
 36A  : 0; 
 36B  : 0; 
 36C  : 0; 
 36D  : 0; 
 36E  : 0; 
 36F  : 0; 
 370  : 0; 
 371  : 0; 
 372  : 0; 
 373  : 0; 
 374  : 0; 
 375  : 0; 
 376  : 0; 
 377  : 0; 
 378  : 0; 
 379  : 0; 
 37A  : 0; 
 37B  : 0; 
 37C  : 6; 
 37D  : 9; 
 37E  : 4; 
 37F  : 16; 
 380  : 0; 
 381  : 0; 
 382  : 0; 
 383  : 0; 
 384  : 0; 
 385  : 0; 
 386  : 0; 
 387  : 0; 
 388  : 0; 
 389  : 0; 
 38A  : 0; 
 38B  : 0; 
 38C  : 0; 
 38D  : 0; 
 38E  : 0; 
 38F  : 0; 
 390  : 0; 
 391  : 0; 
 392  : 0; 
 393  : 0; 
 394  : 0; 
 395  : 0; 
 396  : 0; 
 397  : 0; 
 398  : 0; 
 399  : 0; 
 39A  : 0; 
 39B  : 0; 
 39C  : 0; 
 39D  : 0; 
 39E  : 0; 
 39F  : 0; 
 3A0  : 6; 
 3A1  : 9; 
 3A2  : 4; 
 3A3  : 16; 
 3A4  : 0; 
 3A5  : 0; 
 3A6  : 0; 
 3A7  : 0; 
 3A8  : 0; 
 3A9  : 0; 
 3AA  : 0; 
 3AB  : 0; 
 3AC  : 0; 
 3AD  : 0; 
 3AE  : 0; 
 3AF  : 0; 
 3B0  : 0; 
 3B1  : 0; 
 3B2  : 0; 
 3B3  : 0; 
 3B4  : 0; 
 3B5  : 0; 
 3B6  : 0; 
 3B7  : 0; 
 3B8  : 0; 
 3B9  : 0; 
 3BA  : 0; 
 3BB  : 0; 
 3BC  : 0; 
 3BD  : 0; 
 3BE  : 0; 
 3BF  : 0; 
 3C0  : 0; 
 3C1  : 0; 
 3C2  : 0; 
 3C3  : 0; 
 3C4  : 0; 
 3C5  : 0; 
 3C6  : 0; 
 3C7  : 15; 
 3C8  : 8; 
 3C9  : 17; 
 3CA  : 0; 
 3CB  : 0; 
 3CC  : 0; 
 3CD  : 0; 
 3CE  : 0; 
 3CF  : 0; 
 3D0  : 0; 
 3D1  : 0; 
 3D2  : 0; 
 3D3  : 0; 
 3D4  : 0; 
 3D5  : 0; 
 3D6  : 0; 
 3D7  : 0; 
 3D8  : 0; 
 3D9  : 0; 
 3DA  : 0; 
 3DB  : 0; 
 3DC  : 0; 
 3DD  : 0; 
 3DE  : 0; 
 3DF  : 0; 
 3E0  : 0; 
 3E1  : 0; 
 3E2  : 0; 
 3E3  : 0; 
 3E4  : 0; 
 3E5  : 0; 
 3E6  : 0; 
 3E7  : 0; 
 3E8  : 0; 
 3E9  : 0; 
 3EA  : 0; 
 3EB  : 6; 
 3EC  : 9; 
 3ED  : 4; 
 3EE  : 16; 
 3EF  : 0; 
 3F0  : 0; 
 3F1  : 0; 
 3F2  : 0; 
 3F3  : 0; 
 3F4  : 0; 
 3F5  : 0; 
 3F6  : 0; 
 3F7  : 0; 
 3F8  : 0; 
 3F9  : 0; 
 3FA  : 0; 
 3FB  : 0; 
 3FC  : 0; 
 3FD  : 0; 
 3FE  : 0; 
 3FF  : 0; 
 400  : 0; 
 401  : 0; 
 402  : 0; 
 403  : 0; 
 404  : 0; 
 405  : 0; 
 406  : 0; 
 407  : 0; 
 408  : 0; 
 409  : 0; 
 40A  : 0; 
 40B  : 0; 
 40C  : 0; 
 40D  : 0; 
 40E  : 0; 
 40F  : 0; 
 410  : 0; 
 411  : 0; 
 412  : 20; 
 413  : 19; 
 414  : 5; 
 415  : 0; 
 416  : 0; 
 417  : 0; 
 418  : 0; 
 419  : 0; 
 41A  : 0; 
 41B  : 0; 
 41C  : 0; 
 41D  : 0; 
 41E  : 0; 
 41F  : 0; 
 420  : 0; 
 421  : 0; 
 422  : 0; 
 423  : 0; 
 424  : 0; 
 425  : 0; 
 426  : 0; 
 427  : 0; 
 428  : 0; 
 429  : 0; 
 42A  : 0; 
 42B  : 0; 
 42C  : 0; 
 42D  : 0; 
 42E  : 0; 
 42F  : 0; 
 430  : 0; 
 431  : 0; 
 432  : 0; 
 433  : 0; 
 434  : 0; 
 435  : 0; 
 436  : 6; 
 437  : 9; 
 438  : 19; 
 439  : 5; 
 43A  : 0; 
 43B  : 0; 
 43C  : 0; 
 43D  : 0; 
 43E  : 0; 
 43F  : 0; 
 440  : 0; 
 441  : 0; 
 442  : 0; 
 443  : 0; 
 444  : 0; 
 445  : 0; 
 446  : 0; 
 447  : 0; 
 448  : 0; 
 449  : 0; 
 44A  : 0; 
 44B  : 0; 
 44C  : 0; 
 44D  : 0; 
 44E  : 0; 
 44F  : 0; 
 450  : 0; 
 451  : 0; 
 452  : 0; 
 453  : 0; 
 454  : 0; 
 455  : 0; 
 456  : 0; 
 457  : 0; 
 458  : 0; 
 459  : 0; 
 45A  : 0; 
 45B  : 15; 
 45C  : 8; 
 45D  : 10; 
 45E  : 14; 
 45F  : 0; 
 460  : 0; 
 461  : 0; 
 462  : 0; 
 463  : 0; 
 464  : 0; 
 465  : 0; 
 466  : 0; 
 467  : 0; 
 468  : 0; 
 469  : 0; 
 46A  : 0; 
 46B  : 0; 
 46C  : 0; 
 46D  : 0; 
 46E  : 0; 
 46F  : 0; 
 470  : 0; 
 471  : 0; 
 472  : 0; 
 473  : 0; 
 474  : 0; 
 475  : 0; 
 476  : 0; 
 477  : 0; 
 478  : 0; 
 479  : 0; 
 47A  : 0; 
 47B  : 0; 
 47C  : 0; 
 47D  : 0; 
 47E  : 0; 
 47F  : 0; 
 480  : 0; 
 481  : 0; 
 482  : 0; 
 483  : 0; 
 484  : 0; 
 485  : 0; 
 486  : 0; 
 487  : 0; 
 488  : 0; 
 489  : 0; 
 48A  : 0; 
 48B  : 0; 
 48C  : 0; 
 48D  : 0; 
 48E  : 0; 
 48F  : 0; 
 490  : 0; 
 491  : 0; 
 492  : 0; 
 493  : 0; 
 494  : 0; 
 495  : 0; 
 496  : 0; 
 497  : 0; 
 498  : 0; 
 499  : 0; 
 49A  : 0; 
 49B  : 0; 
 49C  : 0; 
 49D  : 0; 
 49E  : 0; 
 49F  : 0; 
 4A0  : 0; 
 4A1  : 0; 
 4A2  : 0; 
 4A3  : 0; 
 4A4  : 0; 
 4A5  : 0; 
 4A6  : 0; 
 4A7  : 0; 
 4A8  : 0; 
 4A9  : 0; 
 4AA  : 0; 
 4AB  : 0; 
 4AC  : 0; 
 4AD  : 0; 
 4AE  : 0; 
 4AF  : 0; 
 4B0  : 0; 
 4B1  : 0; 
 4B2  : 0; 
 4B3  : 0; 
 4B4  : 0; 
 4B5  : 0; 
 4B6  : 0; 
 4B7  : 0; 
 4B8  : 0; 
 4B9  : 0; 
 4BA  : 0; 
 4BB  : 0; 
 4BC  : 0; 
 4BD  : 0; 
 4BE  : 0; 
 4BF  : 0; 
 4C0  : 0; 
 4C1  : 0; 
 4C2  : 0; 
 4C3  : 0; 
 4C4  : 0; 
 4C5  : 0; 
 4C6  : 0; 
 4C7  : 0; 
 4C8  : 0; 
 4C9  : 0; 
 4CA  : 0; 
 4CB  : 0; 
 4CC  : 0; 
 4CD  : 0; 
 4CE  : 0; 
 4CF  : 0; 
 4D0  : 0; 
 4D1  : 0; 
 4D2  : 0; 
 4D3  : 0; 
 4D4  : 0; 
 4D5  : 0; 
 4D6  : 0; 
 4D7  : 0; 
 4D8  : 0; 
 4D9  : 0; 
 4DA  : 0; 
 4DB  : 0; 
 4DC  : 0; 
 4DD  : 0; 
 4DE  : 0; 
 4DF  : 0; 
 4E0  : 0; 
 4E1  : 0; 
 4E2  : 0; 
 4E3  : 0; 
 4E4  : 0; 
 4E5  : 0; 
 4E6  : 0; 
 4E7  : 0; 
 4E8  : 0; 
 4E9  : 0; 
 4EA  : 0; 
 4EB  : 0; 
 4EC  : 0; 
 4ED  : 0; 
 4EE  : 0; 
 4EF  : 0; 
 4F0  : 0; 
 4F1  : 0; 
 4F2  : 0; 
 4F3  : 0; 
 4F4  : 0; 
 4F5  : 0; 
 4F6  : 0; 
 4F7  : 0; 
 4F8  : 0; 
 4F9  : 0; 
 4FA  : 0; 
 4FB  : 12; 
 4FC  : 12; 
 4FD  : 12; 
 4FE  : 12; 
 4FF  : 12; 
 500  : 12; 
 501  : 12; 
 502  : 12; 
 503  : 12; 
 504  : 12; 
 505  : 12; 
 506  : 12; 
 507  : 12; 
 508  : 12; 
 509  : 12; 
 50A  : 12; 
 50B  : 12; 
 50C  : 12; 
 50D  : 12; 
 50E  : 12; 
 50F  : 12; 
 510  : 12; 
 511  : 12; 
 512  : 12; 
 513  : 12; 
 514  : 12; 
 515  : 12; 
 516  : 12; 
 517  : 12; 
 518  : 12; 
 519  : 12; 
 51A  : 12; 
 51B  : 12; 
 51C  : 12; 
 51D  : 12; 
 51E  : 12; 
 51F  : 12; 
 520  : 12; 
 521  : 12; 
 522  : 12; 
 523  : 12; 
 524  : 12; 
 525  : 12; 
 526  : 12; 
 527  : 12; 
 528  : 12; 
 529  : 12; 
 52A  : 12; 
 52B  : 12; 
 52C  : 12; 
 52D  : 12; 
 52E  : 12; 
 52F  : 12; 
 530  : 12; 
 531  : 12; 
 532  : 12; 
 533  : 12; 
 534  : 12; 
 535  : 12; 
 536  : 12; 
 537  : 12; 
 538  : 12; 
 539  : 12; 
 53A  : 12; 
 53B  : 12; 
 53C  : 12; 
 53D  : 12; 
 53E  : 12; 
 53F  : 12; 
 540  : 12; 
 541  : 12; 
 542  : 12; 
 543  : 12; 
 544  : 12; 
 545  : 12; 
 546  : 0; 
 547  : 0; 
 548  : 0; 
 549  : 0; 
 54A  : 0; 
 54B  : 0; 
 54C  : 0; 
 54D  : 0; 
 54E  : 0; 
 54F  : 0; 
 550  : 0; 
 551  : 0; 
 552  : 0; 
 553  : 0; 
 554  : 0; 
 555  : 0; 
 556  : 0; 
 557  : 0; 
 558  : 0; 
 559  : 0; 
 55A  : 0; 
 55B  : 0; 
 55C  : 0; 
 55D  : 0; 
 55E  : 0; 
 55F  : 0; 
 560  : 0; 
 561  : 0; 
 562  : 0; 
 563  : 0; 
 564  : 0; 
 565  : 0; 
 566  : 0; 
 567  : 0; 
 568  : 0; 
 569  : 0; 
 56A  : 0; 
 56B  : 0; 
 56C  : 0; 
 56D  : 0; 
 56E  : 0; 
 56F  : 0; 
 570  : 0; 
 571  : 0; 
 572  : 0; 
 573  : 0; 
 574  : 0; 
 575  : 0; 
 576  : 0; 
 577  : 0; 
 578  : 0; 
 579  : 0; 
 57A  : 0; 
 57B  : 0; 
 57C  : 0; 
 57D  : 0; 
 57E  : 0; 
 57F  : 0; 
 580  : 0; 
 581  : 0; 
 582  : 0; 
 583  : 0; 
 584  : 0; 
 585  : 0; 
 586  : 0; 
 587  : 0; 
 588  : 0; 
 589  : 0; 
 58A  : 0; 
 58B  : 0; 
 58C  : 0; 
 58D  : 0; 
 58E  : 0; 
 58F  : 0; 
 590  : 0; 
 591  : 0; 
 592  : 0; 
 593  : 0; 
 594  : 0; 
 595  : 0; 
 596  : 0; 
 597  : 0; 
 598  : 0; 
 599  : 0; 
 59A  : 0; 
 59B  : 0; 
 59C  : 0; 
 59D  : 0; 
 59E  : 0; 
 59F  : 0; 
 5A0  : 0; 
 5A1  : 0; 
 5A2  : 0; 
 5A3  : 0; 
 5A4  : 0; 
 5A5  : 0; 
 5A6  : 0; 
 5A7  : 0; 
 5A8  : 0; 
 5A9  : 0; 
 5AA  : 0; 
 5AB  : 0; 
 5AC  : 0; 
 5AD  : 0; 
 5AE  : 0; 
 5AF  : 0; 
 5B0  : 0; 
 5B1  : 0; 
 5B2  : 0; 
 5B3  : 0; 
 5B4  : 0; 
 5B5  : 0; 
 5B6  : 0; 
 5B7  : 0; 
 5B8  : 0; 
 5B9  : 0; 
 5BA  : 0; 
 5BB  : 0; 
 5BC  : 0; 
 5BD  : 0; 
 5BE  : 0; 
 5BF  : 0; 
 5C0  : 0; 
 5C1  : 0; 
 5C2  : 0; 
 5C3  : 0; 
 5C4  : 0; 
 5C5  : 0; 
 5C6  : 0; 
 5C7  : 0; 
 5C8  : 0; 
 5C9  : 0; 
 5CA  : 0; 
 5CB  : 0; 
 5CC  : 0; 
 5CD  : 0; 
 5CE  : 0; 
 5CF  : 0; 
 5D0  : 0; 
 5D1  : 0; 
 5D2  : 0; 
 5D3  : 0; 
 5D4  : 0; 
 5D5  : 0; 
 5D6  : 0; 
 5D7  : 0; 
 5D8  : 0; 
 5D9  : 0; 
 5DA  : 0; 
 5DB  : 0; 
END ; 
