WIDTH = 12;
DEPTH = 1536; 
ADDRESS_RADIX = HEX; 
DATA_RADIX = DEC; 
CONTENT BEGIN  

 0  : 100; 
 1  : 99; 
 2  : 99; 
 3  : 98; 
 4  : 98; 
 5  : 97; 
 6  : 97; 
 7  : 97; 
 8  : 96; 
 9  : 96; 
 A  : 95; 
 B  : 95; 
 C  : 95; 
 D  : 94; 
 E  : 94; 
 F  : 93; 
 10  : 93; 
 11  : 93; 
 12  : 92; 
 13  : 92; 
 14  : 91; 
 15  : 91; 
 16  : 91; 
 17  : 90; 
 18  : 90; 
 19  : 89; 
 1A  : 89; 
 1B  : 88; 
 1C  : 88; 
 1D  : 88; 
 1E  : 87; 
 1F  : 87; 
 20  : 86; 
 21  : 86; 
 22  : 86; 
 23  : 85; 
 24  : 85; 
 25  : 84; 
 26  : 84; 
 27  : 84; 
 28  : 83; 
 29  : 83; 
 2A  : 82; 
 2B  : 82; 
 2C  : 82; 
 2D  : 81; 
 2E  : 81; 
 2F  : 80; 
 30  : 80; 
 31  : 80; 
 32  : 79; 
 33  : 79; 
 34  : 78; 
 35  : 78; 
 36  : 78; 
 37  : 77; 
 38  : 77; 
 39  : 76; 
 3A  : 76; 
 3B  : 76; 
 3C  : 75; 
 3D  : 75; 
 3E  : 74; 
 3F  : 74; 
 40  : 74; 
 41  : 73; 
 42  : 73; 
 43  : 72; 
 44  : 72; 
 45  : 72; 
 46  : 71; 
 47  : 71; 
 48  : 70; 
 49  : 70; 
 4A  : 70; 
 4B  : 69; 
 4C  : 69; 
 4D  : 69; 
 4E  : 68; 
 4F  : 68; 
 50  : 67; 
 51  : 67; 
 52  : 67; 
 53  : 66; 
 54  : 66; 
 55  : 65; 
 56  : 65; 
 57  : 65; 
 58  : 64; 
 59  : 64; 
 5A  : 64; 
 5B  : 63; 
 5C  : 63; 
 5D  : 62; 
 5E  : 62; 
 5F  : 62; 
 60  : 61; 
 61  : 61; 
 62  : 60; 
 63  : 60; 
 64  : 60; 
 65  : 59; 
 66  : 59; 
 67  : 59; 
 68  : 58; 
 69  : 58; 
 6A  : 57; 
 6B  : 57; 
 6C  : 57; 
 6D  : 56; 
 6E  : 56; 
 6F  : 56; 
 70  : 55; 
 71  : 55; 
 72  : 55; 
 73  : 54; 
 74  : 54; 
 75  : 53; 
 76  : 53; 
 77  : 53; 
 78  : 52; 
 79  : 52; 
 7A  : 52; 
 7B  : 51; 
 7C  : 51; 
 7D  : 51; 
 7E  : 50; 
 7F  : 50; 
 80  : 50; 
 81  : 49; 
 82  : 49; 
 83  : 48; 
 84  : 48; 
 85  : 48; 
 86  : 47; 
 87  : 47; 
 88  : 47; 
 89  : 46; 
 8A  : 46; 
 8B  : 46; 
 8C  : 45; 
 8D  : 45; 
 8E  : 45; 
 8F  : 44; 
 90  : 44; 
 91  : 44; 
 92  : 43; 
 93  : 43; 
 94  : 43; 
 95  : 42; 
 96  : 42; 
 97  : 42; 
 98  : 41; 
 99  : 41; 
 9A  : 41; 
 9B  : 40; 
 9C  : 40; 
 9D  : 40; 
 9E  : 39; 
 9F  : 39; 
 A0  : 39; 
 A1  : 38; 
 A2  : 38; 
 A3  : 38; 
 A4  : 37; 
 A5  : 37; 
 A6  : 37; 
 A7  : 36; 
 A8  : 36; 
 A9  : 36; 
 AA  : 35; 
 AB  : 35; 
 AC  : 35; 
 AD  : 34; 
 AE  : 34; 
 AF  : 34; 
 B0  : 34; 
 B1  : 33; 
 B2  : 33; 
 B3  : 33; 
 B4  : 32; 
 B5  : 32; 
 B6  : 32; 
 B7  : 31; 
 B8  : 31; 
 B9  : 31; 
 BA  : 31; 
 BB  : 30; 
 BC  : 30; 
 BD  : 30; 
 BE  : 29; 
 BF  : 29; 
 C0  : 29; 
 C1  : 29; 
 C2  : 28; 
 C3  : 28; 
 C4  : 28; 
 C5  : 27; 
 C6  : 27; 
 C7  : 27; 
 C8  : 27; 
 C9  : 26; 
 CA  : 26; 
 CB  : 26; 
 CC  : 25; 
 CD  : 25; 
 CE  : 25; 
 CF  : 25; 
 D0  : 24; 
 D1  : 24; 
 D2  : 24; 
 D3  : 24; 
 D4  : 23; 
 D5  : 23; 
 D6  : 23; 
 D7  : 22; 
 D8  : 22; 
 D9  : 22; 
 DA  : 22; 
 DB  : 21; 
 DC  : 21; 
 DD  : 21; 
 DE  : 21; 
 DF  : 20; 
 E0  : 20; 
 E1  : 20; 
 E2  : 20; 
 E3  : 19; 
 E4  : 19; 
 E5  : 19; 
 E6  : 19; 
 E7  : 18; 
 E8  : 18; 
 E9  : 18; 
 EA  : 18; 
 EB  : 18; 
 EC  : 17; 
 ED  : 17; 
 EE  : 17; 
 EF  : 17; 
 F0  : 16; 
 F1  : 16; 
 F2  : 16; 
 F3  : 16; 
 F4  : 15; 
 F5  : 15; 
 F6  : 15; 
 F7  : 15; 
 F8  : 15; 
 F9  : 14; 
 FA  : 14; 
 FB  : 14; 
 FC  : 14; 
 FD  : 14; 
 FE  : 13; 
 FF  : 13; 
 100  : 13; 
 101  : 13; 
 102  : 12; 
 103  : 12; 
 104  : 12; 
 105  : 12; 
 106  : 12; 
 107  : 12; 
 108  : 11; 
 109  : 11; 
 10A  : 11; 
 10B  : 11; 
 10C  : 11; 
 10D  : 10; 
 10E  : 10; 
 10F  : 10; 
 110  : 10; 
 111  : 10; 
 112  : 9; 
 113  : 9; 
 114  : 9; 
 115  : 9; 
 116  : 9; 
 117  : 9; 
 118  : 8; 
 119  : 8; 
 11A  : 8; 
 11B  : 8; 
 11C  : 8; 
 11D  : 8; 
 11E  : 7; 
 11F  : 7; 
 120  : 7; 
 121  : 7; 
 122  : 7; 
 123  : 7; 
 124  : 6; 
 125  : 6; 
 126  : 6; 
 127  : 6; 
 128  : 6; 
 129  : 6; 
 12A  : 6; 
 12B  : 5; 
 12C  : 5; 
 12D  : 5; 
 12E  : 5; 
 12F  : 5; 
 130  : 5; 
 131  : 5; 
 132  : 5; 
 133  : 4; 
 134  : 4; 
 135  : 4; 
 136  : 4; 
 137  : 4; 
 138  : 4; 
 139  : 4; 
 13A  : 4; 
 13B  : 3; 
 13C  : 3; 
 13D  : 3; 
 13E  : 3; 
 13F  : 3; 
 140  : 3; 
 141  : 3; 
 142  : 3; 
 143  : 3; 
 144  : 2; 
 145  : 2; 
 146  : 2; 
 147  : 2; 
 148  : 2; 
 149  : 2; 
 14A  : 2; 
 14B  : 2; 
 14C  : 2; 
 14D  : 2; 
 14E  : 2; 
 14F  : 2; 
 150  : 1; 
 151  : 1; 
 152  : 1; 
 153  : 1; 
 154  : 1; 
 155  : 1; 
 156  : 1; 
 157  : 1; 
 158  : 1; 
 159  : 1; 
 15A  : 1; 
 15B  : 1; 
 15C  : 1; 
 15D  : 1; 
 15E  :0; 
 15F  :0; 
 160  :0; 
 161  :0; 
 162  :0; 
 163  :0; 
 164  :0; 
 165  :0; 
 166  :0; 
 167  :0; 
 168  :0; 
 169  :0; 
 16A  :0; 
 16B  :0; 
 16C  :0; 
 16D  :0; 
 16E  :0; 
 16F  :0; 
 170  :0; 
 171  :0; 
 172  :0; 
 173  :0; 
 174  :0; 
 175  :0; 
 176  :0; 
 177  :0; 
 178  :0; 
 179  :0; 
 17A  :0; 
 17B  :0; 
 17C  :0; 
 17D  :0; 
 17E  :0; 
 17F  :0; 
 180  :0; 
 181  :0; 
 182  :0; 
 183  :0; 
 184  :0; 
 185  :0; 
 186  :0; 
 187  :0; 
 188  :0; 
 189  :0; 
 18A  :0; 
 18B  :0; 
 18C  :0; 
 18D  :0; 
 18E  :0; 
 18F  :0; 
 190  :0; 
 191  :0; 
 192  :0; 
 193  :0; 
 194  :0; 
 195  :0; 
 196  :0; 
 197  :0; 
 198  :0; 
 199  :0; 
 19A  :0; 
 19B  :0; 
 19C  :0; 
 19D  :0; 
 19E  :0; 
 19F  :0; 
 1A0  :0; 
 1A1  :0; 
 1A2  :0 ; 
 1A3  : 1; 
 1A4  : 1; 
 1A5  : 1; 
 1A6  : 1; 
 1A7  : 1; 
 1A8  : 1; 
 1A9  : 1; 
 1AA  : 1; 
 1AB  : 1; 
 1AC  : 1; 
 1AD  : 1; 
 1AE  : 1; 
 1AF  : 1; 
 1B0  : 1; 
 1B1  : 2; 
 1B2  : 2; 
 1B3  : 2; 
 1B4  : 2; 
 1B5  : 2; 
 1B6  : 2; 
 1B7  : 2; 
 1B8  : 2; 
 1B9  : 2; 
 1BA  : 2; 
 1BB  : 2; 
 1BC  : 2; 
 1BD  : 3; 
 1BE  : 3; 
 1BF  : 3; 
 1C0  : 3; 
 1C1  : 3; 
 1C2  : 3; 
 1C3  : 3; 
 1C4  : 3; 
 1C5  : 3; 
 1C6  : 4; 
 1C7  : 4; 
 1C8  : 4; 
 1C9  : 4; 
 1CA  : 4; 
 1CB  : 4; 
 1CC  : 4; 
 1CD  : 4; 
 1CE  : 5; 
 1CF  : 5; 
 1D0  : 5; 
 1D1  : 5; 
 1D2  : 5; 
 1D3  : 5; 
 1D4  : 5; 
 1D5  : 5; 
 1D6  : 6; 
 1D7  : 6; 
 1D8  : 6; 
 1D9  : 6; 
 1DA  : 6; 
 1DB  : 6; 
 1DC  : 6; 
 1DD  : 7; 
 1DE  : 7; 
 1DF  : 7; 
 1E0  : 7; 
 1E1  : 7; 
 1E2  : 7; 
 1E3  : 8; 
 1E4  : 8; 
 1E5  : 8; 
 1E6  : 8; 
 1E7  : 8; 
 1E8  : 8; 
 1E9  : 9; 
 1EA  : 9; 
 1EB  : 9; 
 1EC  : 9; 
 1ED  : 9; 
 1EE  : 9; 
 1EF  : 10; 
 1F0  : 10; 
 1F1  : 10; 
 1F2  : 10; 
 1F3  : 10; 
 1F4  : 11; 
 1F5  : 11; 
 1F6  : 11; 
 1F7  : 11; 
 1F8  : 11; 
 1F9  : 12; 
 1FA  : 12; 
 1FB  : 12; 
 1FC  : 12; 
 1FD  : 12; 
 1FE  : 12; 
 1FF  : 13; 
 200  : 13; 
 201  : 13; 
 202  : 13; 
 203  : 14; 
 204  : 14; 
 205  : 14; 
 206  : 14; 
 207  : 14; 
 208  : 15; 
 209  : 15; 
 20A  : 15; 
 20B  : 15; 
 20C  : 15; 
 20D  : 16; 
 20E  : 16; 
 20F  : 16; 
 210  : 16; 
 211  : 17; 
 212  : 17; 
 213  : 17; 
 214  : 17; 
 215  : 18; 
 216  : 18; 
 217  : 18; 
 218  : 18; 
 219  : 18; 
 21A  : 19; 
 21B  : 19; 
 21C  : 19; 
 21D  : 19; 
 21E  : 20; 
 21F  : 20; 
 220  : 20; 
 221  : 20; 
 222  : 21; 
 223  : 21; 
 224  : 21; 
 225  : 21; 
 226  : 22; 
 227  : 22; 
 228  : 22; 
 229  : 22; 
 22A  : 23; 
 22B  : 23; 
 22C  : 23; 
 22D  : 24; 
 22E  : 24; 
 22F  : 24; 
 230  : 24; 
 231  : 25; 
 232  : 25; 
 233  : 25; 
 234  : 25; 
 235  : 26; 
 236  : 26; 
 237  : 26; 
 238  : 27; 
 239  : 27; 
 23A  : 27; 
 23B  : 27; 
 23C  : 28; 
 23D  : 28; 
 23E  : 28; 
 23F  : 29; 
 240  : 29; 
 241  : 29; 
 242  : 29; 
 243  : 30; 
 244  : 30; 
 245  : 30; 
 246  : 31; 
 247  : 31; 
 248  : 31; 
 249  : 31; 
 24A  : 32; 
 24B  : 32; 
 24C  : 32; 
 24D  : 33; 
 24E  : 33; 
 24F  : 33; 
 250  : 34; 
 251  : 34; 
 252  : 34; 
 253  : 34; 
 254  : 35; 
 255  : 35; 
 256  : 35; 
 257  : 36; 
 258  : 36; 
 259  : 36; 
 25A  : 37; 
 25B  : 37; 
 25C  : 37; 
 25D  : 38; 
 25E  : 38; 
 25F  : 38; 
 260  : 39; 
 261  : 39; 
 262  : 39; 
 263  : 40; 
 264  : 40; 
 265  : 40; 
 266  : 41; 
 267  : 41; 
 268  : 41; 
 269  : 42; 
 26A  : 42; 
 26B  : 42; 
 26C  : 43; 
 26D  : 43; 
 26E  : 43; 
 26F  : 44; 
 270  : 44; 
 271  : 44; 
 272  : 45; 
 273  : 45; 
 274  : 45; 
 275  : 46; 
 276  : 46; 
 277  : 46; 
 278  : 47; 
 279  : 47; 
 27A  : 47; 
 27B  : 48; 
 27C  : 48; 
 27D  : 48; 
 27E  : 49; 
 27F  : 49; 
 280  : 50; 
 281  : 50; 
 282  : 50; 
 283  : 51; 
 284  : 51; 
 285  : 51; 
 286  : 52; 
 287  : 52; 
 288  : 52; 
 289  : 53; 
 28A  : 53; 
 28B  : 53; 
 28C  : 54; 
 28D  : 54; 
 28E  : 55; 
 28F  : 55; 
 290  : 55; 
 291  : 56; 
 292  : 56; 
 293  : 56; 
 294  : 57; 
 295  : 57; 
 296  : 57; 
 297  : 58; 
 298  : 58; 
 299  : 59; 
 29A  : 59; 
 29B  : 59; 
 29C  : 60; 
 29D  : 60; 
 29E  : 60; 
 29F  : 61; 
 2A0  : 61; 
 2A1  : 62; 
 2A2  : 62; 
 2A3  : 62; 
 2A4  : 63; 
 2A5  : 63; 
 2A6  : 64; 
 2A7  : 64; 
 2A8  : 64; 
 2A9  : 65; 
 2AA  : 65; 
 2AB  : 65; 
 2AC  : 66; 
 2AD  : 66; 
 2AE  : 67; 
 2AF  : 67; 
 2B0  : 67; 
 2B1  : 68; 
 2B2  : 68; 
 2B3  : 69; 
 2B4  : 69; 
 2B5  : 69; 
 2B6  : 70; 
 2B7  : 70; 
 2B8  : 70; 
 2B9  : 71; 
 2BA  : 71; 
 2BB  : 72; 
 2BC  : 72; 
 2BD  : 72; 
 2BE  : 73; 
 2BF  : 73; 
 2C0  : 74; 
 2C1  : 74; 
 2C2  : 74; 
 2C3  : 75; 
 2C4  : 75; 
 2C5  : 76; 
 2C6  : 76; 
 2C7  : 76; 
 2C8  : 77; 
 2C9  : 77; 
 2CA  : 78; 
 2CB  : 78; 
 2CC  : 78; 
 2CD  : 79; 
 2CE  : 79; 
 2CF  : 80; 
 2D0  : 80; 
 2D1  : 80; 
 2D2  : 81; 
 2D3  : 81; 
 2D4  : 82; 
 2D5  : 82; 
 2D6  : 82; 
 2D7  : 83; 
 2D8  : 83; 
 2D9  : 84; 
 2DA  : 84; 
 2DB  : 84; 
 2DC  : 85; 
 2DD  : 85; 
 2DE  : 86; 
 2DF  : 86; 
 2E0  : 86; 
 2E1  : 87; 
 2E2  : 87; 
 2E3  : 88; 
 2E4  : 88; 
 2E5  : 88; 
 2E6  : 89; 
 2E7  : 89; 
 2E8  : 90; 
 2E9  : 90; 
 2EA  : 91; 
 2EB  : 91; 
 2EC  : 91; 
 2ED  : 92; 
 2EE  : 92; 
 2EF  : 93; 
 2F0  : 93; 
 2F1  : 93; 
 2F2  : 94; 
 2F3  : 94; 
 2F4  : 95; 
 2F5  : 95; 
 2F6  : 95; 
 2F7  : 96; 
 2F8  : 96; 
 2F9  : 97; 
 2FA  : 97; 
 2FB  : 97; 
 2FC  : 98; 
 2FD  : 98; 
 2FE  : 99; 
 2FF  : 99; 
 300  : 99; 
 301  : 100; 
 302  : 100; 
 303  : 101; 
 304  : 101; 
 305  : 102; 
 306  : 102; 
 307  : 102; 
 308  : 103; 
 309  : 103; 
 30A  : 104; 
 30B  : 104; 
 30C  : 104; 
 30D  : 105; 
 30E  : 105; 
 30F  : 106; 
 310  : 106; 
 311  : 106; 
 312  : 107; 
 313  : 107; 
 314  : 108; 
 315  : 108; 
 316  : 108; 
 317  : 109; 
 318  : 109; 
 319  : 110; 
 31A  : 110; 
 31B  : 111; 
 31C  : 111; 
 31D  : 111; 
 31E  : 112; 
 31F  : 112; 
 320  : 113; 
 321  : 113; 
 322  : 113; 
 323  : 114; 
 324  : 114; 
 325  : 115; 
 326  : 115; 
 327  : 115; 
 328  : 116; 
 329  : 116; 
 32A  : 117; 
 32B  : 117; 
 32C  : 117; 
 32D  : 118; 
 32E  : 118; 
 32F  : 119; 
 330  : 119; 
 331  : 119; 
 332  : 120; 
 333  : 120; 
 334  : 121; 
 335  : 121; 
 336  : 121; 
 337  : 122; 
 338  : 122; 
 339  : 123; 
 33A  : 123; 
 33B  : 123; 
 33C  : 124; 
 33D  : 124; 
 33E  : 125; 
 33F  : 125; 
 340  : 125; 
 341  : 126; 
 342  : 126; 
 343  : 127; 
 344  : 127; 
 345  : 127; 
 346  : 128; 
 347  : 128; 
 348  : 129; 
 349  : 129; 
 34A  : 129; 
 34B  : 130; 
 34C  : 130; 
 34D  : 130; 
 34E  : 131; 
 34F  : 131; 
 350  : 132; 
 351  : 132; 
 352  : 132; 
 353  : 133; 
 354  : 133; 
 355  : 134; 
 356  : 134; 
 357  : 134; 
 358  : 135; 
 359  : 135; 
 35A  : 135; 
 35B  : 136; 
 35C  : 136; 
 35D  : 137; 
 35E  : 137; 
 35F  : 137; 
 360  : 138; 
 361  : 138; 
 362  : 139; 
 363  : 139; 
 364  : 139; 
 365  : 140; 
 366  : 140; 
 367  : 140; 
 368  : 141; 
 369  : 141; 
 36A  : 142; 
 36B  : 142; 
 36C  : 142; 
 36D  : 143; 
 36E  : 143; 
 36F  : 143; 
 370  : 144; 
 371  : 144; 
 372  : 144; 
 373  : 145; 
 374  : 145; 
 375  : 146; 
 376  : 146; 
 377  : 146; 
 378  : 147; 
 379  : 147; 
 37A  : 147; 
 37B  : 148; 
 37C  : 148; 
 37D  : 148; 
 37E  : 149; 
 37F  : 149; 
 380  : 150; 
 381  : 150; 
 382  : 150; 
 383  : 151; 
 384  : 151; 
 385  : 151; 
 386  : 152; 
 387  : 152; 
 388  : 152; 
 389  : 153; 
 38A  : 153; 
 38B  : 153; 
 38C  : 154; 
 38D  : 154; 
 38E  : 154; 
 38F  : 155; 
 390  : 155; 
 391  : 155; 
 392  : 156; 
 393  : 156; 
 394  : 156; 
 395  : 157; 
 396  : 157; 
 397  : 157; 
 398  : 158; 
 399  : 158; 
 39A  : 158; 
 39B  : 159; 
 39C  : 159; 
 39D  : 159; 
 39E  : 160; 
 39F  : 160; 
 3A0  : 160; 
 3A1  : 161; 
 3A2  : 161; 
 3A3  : 161; 
 3A4  : 162; 
 3A5  : 162; 
 3A6  : 162; 
 3A7  : 163; 
 3A8  : 163; 
 3A9  : 163; 
 3AA  : 164; 
 3AB  : 164; 
 3AC  : 164; 
 3AD  : 165; 
 3AE  : 165; 
 3AF  : 165; 
 3B0  : 165; 
 3B1  : 166; 
 3B2  : 166; 
 3B3  : 166; 
 3B4  : 167; 
 3B5  : 167; 
 3B6  : 167; 
 3B7  : 168; 
 3B8  : 168; 
 3B9  : 168; 
 3BA  : 168; 
 3BB  : 169; 
 3BC  : 169; 
 3BD  : 169; 
 3BE  : 170; 
 3BF  : 170; 
 3C0  : 170; 
 3C1  : 170; 
 3C2  : 171; 
 3C3  : 171; 
 3C4  : 171; 
 3C5  : 172; 
 3C6  : 172; 
 3C7  : 172; 
 3C8  : 172; 
 3C9  : 173; 
 3CA  : 173; 
 3CB  : 173; 
 3CC  : 174; 
 3CD  : 174; 
 3CE  : 174; 
 3CF  : 174; 
 3D0  : 175; 
 3D1  : 175; 
 3D2  : 175; 
 3D3  : 175; 
 3D4  : 176; 
 3D5  : 176; 
 3D6  : 176; 
 3D7  : 177; 
 3D8  : 177; 
 3D9  : 177; 
 3DA  : 177; 
 3DB  : 178; 
 3DC  : 178; 
 3DD  : 178; 
 3DE  : 178; 
 3DF  : 179; 
 3E0  : 179; 
 3E1  : 179; 
 3E2  : 179; 
 3E3  : 180; 
 3E4  : 180; 
 3E5  : 180; 
 3E6  : 180; 
 3E7  : 181; 
 3E8  : 181; 
 3E9  : 181; 
 3EA  : 181; 
 3EB  : 181; 
 3EC  : 182; 
 3ED  : 182; 
 3EE  : 182; 
 3EF  : 182; 
 3F0  : 183; 
 3F1  : 183; 
 3F2  : 183; 
 3F3  : 183; 
 3F4  : 184; 
 3F5  : 184; 
 3F6  : 184; 
 3F7  : 184; 
 3F8  : 184; 
 3F9  : 185; 
 3FA  : 185; 
 3FB  : 185; 
 3FC  : 185; 
 3FD  : 185; 
 3FE  : 186; 
 3FF  : 186; 
 400  : 186; 
 401  : 186; 
 402  : 187; 
 403  : 187; 
 404  : 187; 
 405  : 187; 
 406  : 187; 
 407  : 187; 
 408  : 188; 
 409  : 188; 
 40A  : 188; 
 40B  : 188; 
 40C  : 188; 
 40D  : 189; 
 40E  : 189; 
 40F  : 189; 
 410  : 189; 
 411  : 189; 
 412  : 190; 
 413  : 190; 
 414  : 190; 
 415  : 190; 
 416  : 190; 
 417  : 190; 
 418  : 191; 
 419  : 191; 
 41A  : 191; 
 41B  : 191; 
 41C  : 191; 
 41D  : 191; 
 41E  : 192; 
 41F  : 192; 
 420  : 192; 
 421  : 192; 
 422  : 192; 
 423  : 192; 
 424  : 193; 
 425  : 193; 
 426  : 193; 
 427  : 193; 
 428  : 193; 
 429  : 193; 
 42A  : 193; 
 42B  : 194; 
 42C  : 194; 
 42D  : 194; 
 42E  : 194; 
 42F  : 194; 
 430  : 194; 
 431  : 194; 
 432  : 194; 
 433  : 195; 
 434  : 195; 
 435  : 195; 
 436  : 195; 
 437  : 195; 
 438  : 195; 
 439  : 195; 
 43A  : 195; 
 43B  : 196; 
 43C  : 196; 
 43D  : 196; 
 43E  : 196; 
 43F  : 196; 
 440  : 196; 
 441  : 196; 
 442  : 196; 
 443  : 196; 
 444  : 197; 
 445  : 197; 
 446  : 197; 
 447  : 197; 
 448  : 197; 
 449  : 197; 
 44A  : 197; 
 44B  : 197; 
 44C  : 197; 
 44D  : 197; 
 44E  : 197; 
 44F  : 197; 
 450  : 198; 
 451  : 198; 
 452  : 198; 
 453  : 198; 
 454  : 198; 
 455  : 198; 
 456  : 198; 
 457  : 198; 
 458  : 198; 
 459  : 198; 
 45A  : 198; 
 45B  : 198; 
 45C  : 198; 
 45D  : 198; 
 45E  : 199; 
 45F  : 199; 
 460  : 199; 
 461  : 199; 
 462  : 199; 
 463  : 199; 
 464  : 199; 
 465  : 199; 
 466  : 199; 
 467  : 199; 
 468  : 199; 
 469  : 199; 
 46A  : 199; 
 46B  : 199; 
 46C  : 199; 
 46D  : 199; 
 46E  : 199; 
 46F  : 199; 
 470  : 199; 
 471  : 199; 
 472  : 199; 
 473  : 199; 
 474  : 199; 
 475  : 199; 
 476  : 199; 
 477  : 199; 
 478  : 199; 
 479  : 199; 
 47A  : 199; 
 47B  : 199; 
 47C  : 199; 
 47D  : 199; 
 47E  : 199; 
 47F  : 199; 
 480  : 200; 
 481  : 199; 
 482  : 199; 
 483  : 199; 
 484  : 199; 
 485  : 199; 
 486  : 199; 
 487  : 199; 
 488  : 199; 
 489  : 199; 
 48A  : 199; 
 48B  : 199; 
 48C  : 199; 
 48D  : 199; 
 48E  : 199; 
 48F  : 199; 
 490  : 199; 
 491  : 199; 
 492  : 199; 
 493  : 199; 
 494  : 199; 
 495  : 199; 
 496  : 199; 
 497  : 199; 
 498  : 199; 
 499  : 199; 
 49A  : 199; 
 49B  : 199; 
 49C  : 199; 
 49D  : 199; 
 49E  : 199; 
 49F  : 199; 
 4A0  : 199; 
 4A1  : 199; 
 4A2  : 199; 
 4A3  : 198; 
 4A4  : 198; 
 4A5  : 198; 
 4A6  : 198; 
 4A7  : 198; 
 4A8  : 198; 
 4A9  : 198; 
 4AA  : 198; 
 4AB  : 198; 
 4AC  : 198; 
 4AD  : 198; 
 4AE  : 198; 
 4AF  : 198; 
 4B0  : 198; 
 4B1  : 197; 
 4B2  : 197; 
 4B3  : 197; 
 4B4  : 197; 
 4B5  : 197; 
 4B6  : 197; 
 4B7  : 197; 
 4B8  : 197; 
 4B9  : 197; 
 4BA  : 197; 
 4BB  : 197; 
 4BC  : 197; 
 4BD  : 196; 
 4BE  : 196; 
 4BF  : 196; 
 4C0  : 196; 
 4C1  : 196; 
 4C2  : 196; 
 4C3  : 196; 
 4C4  : 196; 
 4C5  : 196; 
 4C6  : 195; 
 4C7  : 195; 
 4C8  : 195; 
 4C9  : 195; 
 4CA  : 195; 
 4CB  : 195; 
 4CC  : 195; 
 4CD  : 195; 
 4CE  : 194; 
 4CF  : 194; 
 4D0  : 194; 
 4D1  : 194; 
 4D2  : 194; 
 4D3  : 194; 
 4D4  : 194; 
 4D5  : 194; 
 4D6  : 193; 
 4D7  : 193; 
 4D8  : 193; 
 4D9  : 193; 
 4DA  : 193; 
 4DB  : 193; 
 4DC  : 193; 
 4DD  : 192; 
 4DE  : 192; 
 4DF  : 192; 
 4E0  : 192; 
 4E1  : 192; 
 4E2  : 192; 
 4E3  : 191; 
 4E4  : 191; 
 4E5  : 191; 
 4E6  : 191; 
 4E7  : 191; 
 4E8  : 191; 
 4E9  : 190; 
 4EA  : 190; 
 4EB  : 190; 
 4EC  : 190; 
 4ED  : 190; 
 4EE  : 190; 
 4EF  : 189; 
 4F0  : 189; 
 4F1  : 189; 
 4F2  : 189; 
 4F3  : 189; 
 4F4  : 188; 
 4F5  : 188; 
 4F6  : 188; 
 4F7  : 188; 
 4F8  : 188; 
 4F9  : 187; 
 4FA  : 187; 
 4FB  : 187; 
 4FC  : 187; 
 4FD  : 187; 
 4FE  : 187; 
 4FF  : 186; 
 500  : 186; 
 501  : 186; 
 502  : 186; 
 503  : 185; 
 504  : 185; 
 505  : 185; 
 506  : 185; 
 507  : 185; 
 508  : 184; 
 509  : 184; 
 50A  : 184; 
 50B  : 184; 
 50C  : 184; 
 50D  : 183; 
 50E  : 183; 
 50F  : 183; 
 510  : 183; 
 511  : 182; 
 512  : 182; 
 513  : 182; 
 514  : 182; 
 515  : 181; 
 516  : 181; 
 517  : 181; 
 518  : 181; 
 519  : 181; 
 51A  : 180; 
 51B  : 180; 
 51C  : 180; 
 51D  : 180; 
 51E  : 179; 
 51F  : 179; 
 520  : 179; 
 521  : 179; 
 522  : 178; 
 523  : 178; 
 524  : 178; 
 525  : 178; 
 526  : 177; 
 527  : 177; 
 528  : 177; 
 529  : 177; 
 52A  : 176; 
 52B  : 176; 
 52C  : 176; 
 52D  : 175; 
 52E  : 175; 
 52F  : 175; 
 530  : 175; 
 531  : 174; 
 532  : 174; 
 533  : 174; 
 534  : 174; 
 535  : 173; 
 536  : 173; 
 537  : 173; 
 538  : 172; 
 539  : 172; 
 53A  : 172; 
 53B  : 172; 
 53C  : 171; 
 53D  : 171; 
 53E  : 171; 
 53F  : 170; 
 540  : 170; 
 541  : 170; 
 542  : 170; 
 543  : 169; 
 544  : 169; 
 545  : 169; 
 546  : 168; 
 547  : 168; 
 548  : 168; 
 549  : 168; 
 54A  : 167; 
 54B  : 167; 
 54C  : 167; 
 54D  : 166; 
 54E  : 166; 
 54F  : 166; 
 550  : 165; 
 551  : 165; 
 552  : 165; 
 553  : 165; 
 554  : 164; 
 555  : 164; 
 556  : 164; 
 557  : 163; 
 558  : 163; 
 559  : 163; 
 55A  : 162; 
 55B  : 162; 
 55C  : 162; 
 55D  : 161; 
 55E  : 161; 
 55F  : 161; 
 560  : 160; 
 561  : 160; 
 562  : 160; 
 563  : 159; 
 564  : 159; 
 565  : 159; 
 566  : 158; 
 567  : 158; 
 568  : 158; 
 569  : 157; 
 56A  : 157; 
 56B  : 157; 
 56C  : 156; 
 56D  : 156; 
 56E  : 156; 
 56F  : 155; 
 570  : 155; 
 571  : 155; 
 572  : 154; 
 573  : 154; 
 574  : 154; 
 575  : 153; 
 576  : 153; 
 577  : 153; 
 578  : 152; 
 579  : 152; 
 57A  : 152; 
 57B  : 151; 
 57C  : 151; 
 57D  : 151; 
 57E  : 150; 
 57F  : 150; 
 580  : 149; 
 581  : 149; 
 582  : 149; 
 583  : 148; 
 584  : 148; 
 585  : 148; 
 586  : 147; 
 587  : 147; 
 588  : 147; 
 589  : 146; 
 58A  : 146; 
 58B  : 146; 
 58C  : 145; 
 58D  : 145; 
 58E  : 144; 
 58F  : 144; 
 590  : 144; 
 591  : 143; 
 592  : 143; 
 593  : 143; 
 594  : 142; 
 595  : 142; 
 596  : 142; 
 597  : 141; 
 598  : 141; 
 599  : 140; 
 59A  : 140; 
 59B  : 140; 
 59C  : 139; 
 59D  : 139; 
 59E  : 139; 
 59F  : 138; 
 5A0  : 138; 
 5A1  : 137; 
 5A2  : 137; 
 5A3  : 137; 
 5A4  : 136; 
 5A5  : 136; 
 5A6  : 135; 
 5A7  : 135; 
 5A8  : 135; 
 5A9  : 134; 
 5AA  : 134; 
 5AB  : 134; 
 5AC  : 133; 
 5AD  : 133; 
 5AE  : 132; 
 5AF  : 132; 
 5B0  : 132; 
 5B1  : 131; 
 5B2  : 131; 
 5B3  : 130; 
 5B4  : 130; 
 5B5  : 130; 
 5B6  : 129; 
 5B7  : 129; 
 5B8  : 129; 
 5B9  : 128; 
 5BA  : 128; 
 5BB  : 127; 
 5BC  : 127; 
 5BD  : 127; 
 5BE  : 126; 
 5BF  : 126; 
 5C0  : 125; 
 5C1  : 125; 
 5C2  : 125; 
 5C3  : 124; 
 5C4  : 124; 
 5C5  : 123; 
 5C6  : 123; 
 5C7  : 123; 
 5C8  : 122; 
 5C9  : 122; 
 5CA  : 121; 
 5CB  : 121; 
 5CC  : 121; 
 5CD  : 120; 
 5CE  : 120; 
 5CF  : 119; 
 5D0  : 119; 
 5D1  : 119; 
 5D2  : 118; 
 5D3  : 118; 
 5D4  : 117; 
 5D5  : 117; 
 5D6  : 117; 
 5D7  : 116; 
 5D8  : 116; 
 5D9  : 115; 
 5DA  : 115; 
 5DB  : 115; 
 5DC  : 114; 
 5DD  : 114; 
 5DE  : 113; 
 5DF  : 113; 
 5E0  : 113; 
 5E1  : 112; 
 5E2  : 112; 
 5E3  : 111; 
 5E4  : 111; 
 5E5  : 111; 
 5E6  : 110; 
 5E7  : 110; 
 5E8  : 109; 
 5E9  : 109; 
 5EA  : 108; 
 5EB  : 108; 
 5EC  : 108; 
 5ED  : 107; 
 5EE  : 107; 
 5EF  : 106; 
 5F0  : 106; 
 5F1  : 106; 
 5F2  : 105; 
 5F3  : 105; 
 5F4  : 104; 
 5F5  : 104; 
 5F6  : 104; 
 5F7  : 103; 
 5F8  : 103; 
 5F9  : 102; 
 5FA  : 102; 
 5FB  : 102; 
 5FC  : 101; 
 5FD  : 101; 
 5FE  : 100; 
 5FF  : 100; 
END ; 
