WIDTH = 12;
DEPTH = 2000; 
ADDRESS_RADIX = HEX; 
DATA_RADIX = DEC; 
CONTENT BEGIN  

 0  : 0; 
 1  : 0; 
 2  : 0; 
 3  : 0; 
 4  : 0; 
 5  : 0; 
 6  : 0; 
 7  : 0; 
 8  : 0; 
 9  : 0; 
 A  : 1; 
 B  : 1; 
 C  : 1; 
 D  : 1; 
 E  : 1; 
 F  : 1; 
 10  : 1; 
 11  : 1; 
 12  : 1; 
 13  : 1; 
 14  : 2; 
 15  : 2; 
 16  : 2; 
 17  : 2; 
 18  : 2; 
 19  : 2; 
 1A  : 2; 
 1B  : 2; 
 1C  : 2; 
 1D  : 2; 
 1E  : 3; 
 1F  : 3; 
 20  : 3; 
 21  : 3; 
 22  : 3; 
 23  : 3; 
 24  : 3; 
 25  : 3; 
 26  : 3; 
 27  : 3; 
 28  : 4; 
 29  : 4; 
 2A  : 4; 
 2B  : 4; 
 2C  : 4; 
 2D  : 4; 
 2E  : 4; 
 2F  : 4; 
 30  : 4; 
 31  : 4; 
 32  : 5; 
 33  : 5; 
 34  : 5; 
 35  : 5; 
 36  : 5; 
 37  : 5; 
 38  : 5; 
 39  : 5; 
 3A  : 5; 
 3B  : 5; 
 3C  : 6; 
 3D  : 6; 
 3E  : 6; 
 3F  : 6; 
 40  : 6; 
 41  : 6; 
 42  : 6; 
 43  : 6; 
 44  : 6; 
 45  : 6; 
 46  : 7; 
 47  : 7; 
 48  : 7; 
 49  : 7; 
 4A  : 7; 
 4B  : 7; 
 4C  : 7; 
 4D  : 7; 
 4E  : 7; 
 4F  : 7; 
 50  : 8; 
 51  : 8; 
 52  : 8; 
 53  : 8; 
 54  : 8; 
 55  : 8; 
 56  : 8; 
 57  : 8; 
 58  : 8; 
 59  : 8; 
 5A  : 9; 
 5B  : 9; 
 5C  : 9; 
 5D  : 9; 
 5E  : 9; 
 5F  : 9; 
 60  : 9; 
 61  : 9; 
 62  : 9; 
 63  : 9; 
 64  : 10; 
 65  : 10; 
 66  : 10; 
 67  : 10; 
 68  : 10; 
 69  : 10; 
 6A  : 10; 
 6B  : 10; 
 6C  : 10; 
 6D  : 10; 
 6E  : 11; 
 6F  : 11; 
 70  : 11; 
 71  : 11; 
 72  : 11; 
 73  : 11; 
 74  : 11; 
 75  : 11; 
 76  : 11; 
 77  : 11; 
 78  : 12; 
 79  : 12; 
 7A  : 12; 
 7B  : 12; 
 7C  : 12; 
 7D  : 12; 
 7E  : 12; 
 7F  : 12; 
 80  : 12; 
 81  : 12; 
 82  : 13; 
 83  : 13; 
 84  : 13; 
 85  : 13; 
 86  : 13; 
 87  : 13; 
 88  : 13; 
 89  : 13; 
 8A  : 13; 
 8B  : 13; 
 8C  : 14; 
 8D  : 14; 
 8E  : 14; 
 8F  : 14; 
 90  : 14; 
 91  : 14; 
 92  : 14; 
 93  : 14; 
 94  : 14; 
 95  : 14; 
 96  : 15; 
 97  : 15; 
 98  : 15; 
 99  : 15; 
 9A  : 15; 
 9B  : 15; 
 9C  : 15; 
 9D  : 15; 
 9E  : 15; 
 9F  : 15; 
 A0  : 16; 
 A1  : 16; 
 A2  : 16; 
 A3  : 16; 
 A4  : 16; 
 A5  : 16; 
 A6  : 16; 
 A7  : 16; 
 A8  : 16; 
 A9  : 16; 
 AA  : 17; 
 AB  : 17; 
 AC  : 17; 
 AD  : 17; 
 AE  : 17; 
 AF  : 17; 
 B0  : 17; 
 B1  : 17; 
 B2  : 17; 
 B3  : 17; 
 B4  : 18; 
 B5  : 18; 
 B6  : 18; 
 B7  : 18; 
 B8  : 18; 
 B9  : 18; 
 BA  : 18; 
 BB  : 18; 
 BC  : 18; 
 BD  : 18; 
 BE  : 19; 
 BF  : 19; 
 C0  : 19; 
 C1  : 19; 
 C2  : 19; 
 C3  : 19; 
 C4  : 19; 
 C5  : 19; 
 C6  : 19; 
 C7  : 19; 
 C8  : 20; 
 C9  : 20; 
 CA  : 20; 
 CB  : 20; 
 CC  : 20; 
 CD  : 20; 
 CE  : 20; 
 CF  : 20; 
 D0  : 20; 
 D1  : 20; 
 D2  : 21; 
 D3  : 21; 
 D4  : 21; 
 D5  : 21; 
 D6  : 21; 
 D7  : 21; 
 D8  : 21; 
 D9  : 21; 
 DA  : 21; 
 DB  : 21; 
 DC  : 22; 
 DD  : 22; 
 DE  : 22; 
 DF  : 22; 
 E0  : 22; 
 E1  : 22; 
 E2  : 22; 
 E3  : 22; 
 E4  : 22; 
 E5  : 22; 
 E6  : 23; 
 E7  : 23; 
 E8  : 23; 
 E9  : 23; 
 EA  : 23; 
 EB  : 23; 
 EC  : 23; 
 ED  : 23; 
 EE  : 23; 
 EF  : 23; 
 F0  : 24; 
 F1  : 24; 
 F2  : 24; 
 F3  : 24; 
 F4  : 24; 
 F5  : 24; 
 F6  : 24; 
 F7  : 24; 
 F8  : 24; 
 F9  : 24; 
 FA  : 25; 
 FB  : 25; 
 FC  : 25; 
 FD  : 25; 
 FE  : 25; 
 FF  : 25; 
 100  : 25; 
 101  : 25; 
 102  : 25; 
 103  : 25; 
 104  : 26; 
 105  : 26; 
 106  : 26; 
 107  : 26; 
 108  : 26; 
 109  : 26; 
 10A  : 26; 
 10B  : 26; 
 10C  : 26; 
 10D  : 26; 
 10E  : 27; 
 10F  : 27; 
 110  : 27; 
 111  : 27; 
 112  : 27; 
 113  : 27; 
 114  : 27; 
 115  : 27; 
 116  : 27; 
 117  : 27; 
 118  : 28; 
 119  : 28; 
 11A  : 28; 
 11B  : 28; 
 11C  : 28; 
 11D  : 28; 
 11E  : 28; 
 11F  : 28; 
 120  : 28; 
 121  : 28; 
 122  : 29; 
 123  : 29; 
 124  : 29; 
 125  : 29; 
 126  : 29; 
 127  : 29; 
 128  : 29; 
 129  : 29; 
 12A  : 29; 
 12B  : 29; 
 12C  : 30; 
 12D  : 30; 
 12E  : 30; 
 12F  : 30; 
 130  : 30; 
 131  : 30; 
 132  : 30; 
 133  : 30; 
 134  : 30; 
 135  : 30; 
 136  : 31; 
 137  : 31; 
 138  : 31; 
 139  : 31; 
 13A  : 31; 
 13B  : 31; 
 13C  : 31; 
 13D  : 31; 
 13E  : 31; 
 13F  : 31; 
 140  : 32; 
 141  : 32; 
 142  : 32; 
 143  : 32; 
 144  : 32; 
 145  : 32; 
 146  : 32; 
 147  : 32; 
 148  : 32; 
 149  : 32; 
 14A  : 33; 
 14B  : 33; 
 14C  : 33; 
 14D  : 33; 
 14E  : 33; 
 14F  : 33; 
 150  : 33; 
 151  : 33; 
 152  : 33; 
 153  : 33; 
 154  : 34; 
 155  : 34; 
 156  : 34; 
 157  : 34; 
 158  : 34; 
 159  : 34; 
 15A  : 34; 
 15B  : 34; 
 15C  : 34; 
 15D  : 34; 
 15E  : 35; 
 15F  : 35; 
 160  : 35; 
 161  : 35; 
 162  : 35; 
 163  : 35; 
 164  : 35; 
 165  : 35; 
 166  : 35; 
 167  : 35; 
 168  : 36; 
 169  : 36; 
 16A  : 36; 
 16B  : 36; 
 16C  : 36; 
 16D  : 36; 
 16E  : 36; 
 16F  : 36; 
 170  : 36; 
 171  : 36; 
 172  : 37; 
 173  : 37; 
 174  : 37; 
 175  : 37; 
 176  : 37; 
 177  : 37; 
 178  : 37; 
 179  : 37; 
 17A  : 37; 
 17B  : 37; 
 17C  : 38; 
 17D  : 38; 
 17E  : 38; 
 17F  : 38; 
 180  : 38; 
 181  : 38; 
 182  : 38; 
 183  : 38; 
 184  : 38; 
 185  : 38; 
 186  : 39; 
 187  : 39; 
 188  : 39; 
 189  : 39; 
 18A  : 39; 
 18B  : 39; 
 18C  : 39; 
 18D  : 39; 
 18E  : 39; 
 18F  : 39; 
 190  : 40; 
 191  : 40; 
 192  : 40; 
 193  : 40; 
 194  : 40; 
 195  : 40; 
 196  : 40; 
 197  : 40; 
 198  : 40; 
 199  : 40; 
 19A  : 41; 
 19B  : 41; 
 19C  : 41; 
 19D  : 41; 
 19E  : 41; 
 19F  : 41; 
 1A0  : 41; 
 1A1  : 41; 
 1A2  : 41; 
 1A3  : 41; 
 1A4  : 42; 
 1A5  : 42; 
 1A6  : 42; 
 1A7  : 42; 
 1A8  : 42; 
 1A9  : 42; 
 1AA  : 42; 
 1AB  : 42; 
 1AC  : 42; 
 1AD  : 42; 
 1AE  : 43; 
 1AF  : 43; 
 1B0  : 43; 
 1B1  : 43; 
 1B2  : 43; 
 1B3  : 43; 
 1B4  : 43; 
 1B5  : 43; 
 1B6  : 43; 
 1B7  : 43; 
 1B8  : 44; 
 1B9  : 44; 
 1BA  : 44; 
 1BB  : 44; 
 1BC  : 44; 
 1BD  : 44; 
 1BE  : 44; 
 1BF  : 44; 
 1C0  : 44; 
 1C1  : 44; 
 1C2  : 45; 
 1C3  : 45; 
 1C4  : 45; 
 1C5  : 45; 
 1C6  : 45; 
 1C7  : 45; 
 1C8  : 45; 
 1C9  : 45; 
 1CA  : 45; 
 1CB  : 45; 
 1CC  : 46; 
 1CD  : 46; 
 1CE  : 46; 
 1CF  : 46; 
 1D0  : 46; 
 1D1  : 46; 
 1D2  : 46; 
 1D3  : 46; 
 1D4  : 46; 
 1D5  : 46; 
 1D6  : 47; 
 1D7  : 47; 
 1D8  : 47; 
 1D9  : 47; 
 1DA  : 47; 
 1DB  : 47; 
 1DC  : 47; 
 1DD  : 47; 
 1DE  : 47; 
 1DF  : 47; 
 1E0  : 48; 
 1E1  : 48; 
 1E2  : 48; 
 1E3  : 48; 
 1E4  : 48; 
 1E5  : 48; 
 1E6  : 48; 
 1E7  : 48; 
 1E8  : 48; 
 1E9  : 48; 
 1EA  : 49; 
 1EB  : 49; 
 1EC  : 49; 
 1ED  : 49; 
 1EE  : 49; 
 1EF  : 49; 
 1F0  : 49; 
 1F1  : 49; 
 1F2  : 49; 
 1F3  : 49; 
 1F4  : 50; 
 1F5  : 50; 
 1F6  : 50; 
 1F7  : 50; 
 1F8  : 50; 
 1F9  : 50; 
 1FA  : 50; 
 1FB  : 50; 
 1FC  : 50; 
 1FD  : 50; 
 1FE  : 51; 
 1FF  : 51; 
 200  : 51; 
 201  : 51; 
 202  : 51; 
 203  : 51; 
 204  : 51; 
 205  : 51; 
 206  : 51; 
 207  : 51; 
 208  : 52; 
 209  : 52; 
 20A  : 52; 
 20B  : 52; 
 20C  : 52; 
 20D  : 52; 
 20E  : 52; 
 20F  : 52; 
 210  : 52; 
 211  : 52; 
 212  : 53; 
 213  : 53; 
 214  : 53; 
 215  : 53; 
 216  : 53; 
 217  : 53; 
 218  : 53; 
 219  : 53; 
 21A  : 53; 
 21B  : 53; 
 21C  : 54; 
 21D  : 54; 
 21E  : 54; 
 21F  : 54; 
 220  : 54; 
 221  : 54; 
 222  : 54; 
 223  : 54; 
 224  : 54; 
 225  : 54; 
 226  : 55; 
 227  : 55; 
 228  : 55; 
 229  : 55; 
 22A  : 55; 
 22B  : 55; 
 22C  : 55; 
 22D  : 55; 
 22E  : 55; 
 22F  : 55; 
 230  : 56; 
 231  : 56; 
 232  : 56; 
 233  : 56; 
 234  : 56; 
 235  : 56; 
 236  : 56; 
 237  : 56; 
 238  : 56; 
 239  : 56; 
 23A  : 57; 
 23B  : 57; 
 23C  : 57; 
 23D  : 57; 
 23E  : 57; 
 23F  : 57; 
 240  : 57; 
 241  : 57; 
 242  : 57; 
 243  : 57; 
 244  : 58; 
 245  : 58; 
 246  : 58; 
 247  : 58; 
 248  : 58; 
 249  : 58; 
 24A  : 58; 
 24B  : 58; 
 24C  : 58; 
 24D  : 58; 
 24E  : 59; 
 24F  : 59; 
 250  : 59; 
 251  : 59; 
 252  : 59; 
 253  : 59; 
 254  : 59; 
 255  : 59; 
 256  : 59; 
 257  : 59; 
 258  : 60; 
 259  : 60; 
 25A  : 60; 
 25B  : 60; 
 25C  : 60; 
 25D  : 60; 
 25E  : 60; 
 25F  : 60; 
 260  : 60; 
 261  : 60; 
 262  : 61; 
 263  : 61; 
 264  : 61; 
 265  : 61; 
 266  : 61; 
 267  : 61; 
 268  : 61; 
 269  : 61; 
 26A  : 61; 
 26B  : 61; 
 26C  : 62; 
 26D  : 62; 
 26E  : 62; 
 26F  : 62; 
 270  : 62; 
 271  : 62; 
 272  : 62; 
 273  : 62; 
 274  : 62; 
 275  : 62; 
 276  : 63; 
 277  : 63; 
 278  : 63; 
 279  : 63; 
 27A  : 63; 
 27B  : 63; 
 27C  : 63; 
 27D  : 63; 
 27E  : 63; 
 27F  : 63; 
 280  : 64; 
 281  : 64; 
 282  : 64; 
 283  : 64; 
 284  : 64; 
 285  : 64; 
 286  : 64; 
 287  : 64; 
 288  : 64; 
 289  : 64; 
 28A  : 65; 
 28B  : 65; 
 28C  : 65; 
 28D  : 65; 
 28E  : 65; 
 28F  : 65; 
 290  : 65; 
 291  : 65; 
 292  : 65; 
 293  : 65; 
 294  : 66; 
 295  : 66; 
 296  : 66; 
 297  : 66; 
 298  : 66; 
 299  : 66; 
 29A  : 66; 
 29B  : 66; 
 29C  : 66; 
 29D  : 66; 
 29E  : 67; 
 29F  : 67; 
 2A0  : 67; 
 2A1  : 67; 
 2A2  : 67; 
 2A3  : 67; 
 2A4  : 67; 
 2A5  : 67; 
 2A6  : 67; 
 2A7  : 67; 
 2A8  : 68; 
 2A9  : 68; 
 2AA  : 68; 
 2AB  : 68; 
 2AC  : 68; 
 2AD  : 68; 
 2AE  : 68; 
 2AF  : 68; 
 2B0  : 68; 
 2B1  : 68; 
 2B2  : 69; 
 2B3  : 69; 
 2B4  : 69; 
 2B5  : 69; 
 2B6  : 69; 
 2B7  : 69; 
 2B8  : 69; 
 2B9  : 69; 
 2BA  : 69; 
 2BB  : 69; 
 2BC  : 70; 
 2BD  : 70; 
 2BE  : 70; 
 2BF  : 70; 
 2C0  : 70; 
 2C1  : 70; 
 2C2  : 70; 
 2C3  : 70; 
 2C4  : 70; 
 2C5  : 70; 
 2C6  : 71; 
 2C7  : 71; 
 2C8  : 71; 
 2C9  : 71; 
 2CA  : 71; 
 2CB  : 71; 
 2CC  : 71; 
 2CD  : 71; 
 2CE  : 71; 
 2CF  : 71; 
 2D0  : 72; 
 2D1  : 72; 
 2D2  : 72; 
 2D3  : 72; 
 2D4  : 72; 
 2D5  : 72; 
 2D6  : 72; 
 2D7  : 72; 
 2D8  : 72; 
 2D9  : 72; 
 2DA  : 73; 
 2DB  : 73; 
 2DC  : 73; 
 2DD  : 73; 
 2DE  : 73; 
 2DF  : 73; 
 2E0  : 73; 
 2E1  : 73; 
 2E2  : 73; 
 2E3  : 73; 
 2E4  : 74; 
 2E5  : 74; 
 2E6  : 74; 
 2E7  : 74; 
 2E8  : 74; 
 2E9  : 74; 
 2EA  : 74; 
 2EB  : 74; 
 2EC  : 74; 
 2ED  : 74; 
 2EE  : 75; 
 2EF  : 75; 
 2F0  : 75; 
 2F1  : 75; 
 2F2  : 75; 
 2F3  : 75; 
 2F4  : 75; 
 2F5  : 75; 
 2F6  : 75; 
 2F7  : 75; 
 2F8  : 76; 
 2F9  : 76; 
 2FA  : 76; 
 2FB  : 76; 
 2FC  : 76; 
 2FD  : 76; 
 2FE  : 76; 
 2FF  : 76; 
 300  : 76; 
 301  : 76; 
 302  : 77; 
 303  : 77; 
 304  : 77; 
 305  : 77; 
 306  : 77; 
 307  : 77; 
 308  : 77; 
 309  : 77; 
 30A  : 77; 
 30B  : 77; 
 30C  : 78; 
 30D  : 78; 
 30E  : 78; 
 30F  : 78; 
 310  : 78; 
 311  : 78; 
 312  : 78; 
 313  : 78; 
 314  : 78; 
 315  : 78; 
 316  : 79; 
 317  : 79; 
 318  : 79; 
 319  : 79; 
 31A  : 79; 
 31B  : 79; 
 31C  : 79; 
 31D  : 79; 
 31E  : 79; 
 31F  : 79; 
 320  : 80; 
 321  : 80; 
 322  : 80; 
 323  : 80; 
 324  : 80; 
 325  : 80; 
 326  : 80; 
 327  : 80; 
 328  : 80; 
 329  : 80; 
 32A  : 81; 
 32B  : 81; 
 32C  : 81; 
 32D  : 81; 
 32E  : 81; 
 32F  : 81; 
 330  : 81; 
 331  : 81; 
 332  : 81; 
 333  : 81; 
 334  : 82; 
 335  : 82; 
 336  : 82; 
 337  : 82; 
 338  : 82; 
 339  : 82; 
 33A  : 82; 
 33B  : 82; 
 33C  : 82; 
 33D  : 82; 
 33E  : 83; 
 33F  : 83; 
 340  : 83; 
 341  : 83; 
 342  : 83; 
 343  : 83; 
 344  : 83; 
 345  : 83; 
 346  : 83; 
 347  : 83; 
 348  : 84; 
 349  : 84; 
 34A  : 84; 
 34B  : 84; 
 34C  : 84; 
 34D  : 84; 
 34E  : 84; 
 34F  : 84; 
 350  : 84; 
 351  : 84; 
 352  : 85; 
 353  : 85; 
 354  : 85; 
 355  : 85; 
 356  : 85; 
 357  : 85; 
 358  : 85; 
 359  : 85; 
 35A  : 85; 
 35B  : 85; 
 35C  : 86; 
 35D  : 86; 
 35E  : 86; 
 35F  : 86; 
 360  : 86; 
 361  : 86; 
 362  : 86; 
 363  : 86; 
 364  : 86; 
 365  : 86; 
 366  : 87; 
 367  : 87; 
 368  : 87; 
 369  : 87; 
 36A  : 87; 
 36B  : 87; 
 36C  : 87; 
 36D  : 87; 
 36E  : 87; 
 36F  : 87; 
 370  : 88; 
 371  : 88; 
 372  : 88; 
 373  : 88; 
 374  : 88; 
 375  : 88; 
 376  : 88; 
 377  : 88; 
 378  : 88; 
 379  : 88; 
 37A  : 89; 
 37B  : 89; 
 37C  : 89; 
 37D  : 89; 
 37E  : 89; 
 37F  : 89; 
 380  : 89; 
 381  : 89; 
 382  : 89; 
 383  : 89; 
 384  : 90; 
 385  : 90; 
 386  : 90; 
 387  : 90; 
 388  : 90; 
 389  : 90; 
 38A  : 90; 
 38B  : 90; 
 38C  : 90; 
 38D  : 90; 
 38E  : 91; 
 38F  : 91; 
 390  : 91; 
 391  : 91; 
 392  : 91; 
 393  : 91; 
 394  : 91; 
 395  : 91; 
 396  : 91; 
 397  : 91; 
 398  : 92; 
 399  : 92; 
 39A  : 92; 
 39B  : 92; 
 39C  : 92; 
 39D  : 92; 
 39E  : 92; 
 39F  : 92; 
 3A0  : 92; 
 3A1  : 92; 
 3A2  : 93; 
 3A3  : 93; 
 3A4  : 93; 
 3A5  : 93; 
 3A6  : 93; 
 3A7  : 93; 
 3A8  : 93; 
 3A9  : 93; 
 3AA  : 93; 
 3AB  : 93; 
 3AC  : 94; 
 3AD  : 94; 
 3AE  : 94; 
 3AF  : 94; 
 3B0  : 94; 
 3B1  : 94; 
 3B2  : 94; 
 3B3  : 94; 
 3B4  : 94; 
 3B5  : 94; 
 3B6  : 95; 
 3B7  : 95; 
 3B8  : 95; 
 3B9  : 95; 
 3BA  : 95; 
 3BB  : 95; 
 3BC  : 95; 
 3BD  : 95; 
 3BE  : 95; 
 3BF  : 95; 
 3C0  : 96; 
 3C1  : 96; 
 3C2  : 96; 
 3C3  : 96; 
 3C4  : 96; 
 3C5  : 96; 
 3C6  : 96; 
 3C7  : 96; 
 3C8  : 96; 
 3C9  : 96; 
 3CA  : 97; 
 3CB  : 97; 
 3CC  : 97; 
 3CD  : 97; 
 3CE  : 97; 
 3CF  : 97; 
 3D0  : 97; 
 3D1  : 97; 
 3D2  : 97; 
 3D3  : 97; 
 3D4  : 98; 
 3D5  : 98; 
 3D6  : 98; 
 3D7  : 98; 
 3D8  : 98; 
 3D9  : 98; 
 3DA  : 98; 
 3DB  : 98; 
 3DC  : 98; 
 3DD  : 98; 
 3DE  : 99; 
 3DF  : 99; 
 3E0  : 99; 
 3E1  : 99; 
 3E2  : 99; 
 3E3  : 99; 
 3E4  : 99; 
 3E5  : 99; 
 3E6  : 99; 
 3E7  : 99; 
 3E8  : 100; 
 3E9  : 99; 
 3EA  : 99; 
 3EB  : 99; 
 3EC  : 99; 
 3ED  : 99; 
 3EE  : 99; 
 3EF  : 99; 
 3F0  : 99; 
 3F1  : 99; 
 3F2  : 99; 
 3F3  : 98; 
 3F4  : 98; 
 3F5  : 98; 
 3F6  : 98; 
 3F7  : 98; 
 3F8  : 98; 
 3F9  : 98; 
 3FA  : 98; 
 3FB  : 98; 
 3FC  : 98; 
 3FD  : 97; 
 3FE  : 97; 
 3FF  : 97; 
 400  : 97; 
 401  : 97; 
 402  : 97; 
 403  : 97; 
 404  : 97; 
 405  : 97; 
 406  : 97; 
 407  : 96; 
 408  : 96; 
 409  : 96; 
 40A  : 96; 
 40B  : 96; 
 40C  : 96; 
 40D  : 96; 
 40E  : 96; 
 40F  : 96; 
 410  : 96; 
 411  : 95; 
 412  : 95; 
 413  : 95; 
 414  : 95; 
 415  : 95; 
 416  : 95; 
 417  : 95; 
 418  : 95; 
 419  : 95; 
 41A  : 95; 
 41B  : 94; 
 41C  : 94; 
 41D  : 94; 
 41E  : 94; 
 41F  : 94; 
 420  : 94; 
 421  : 94; 
 422  : 94; 
 423  : 94; 
 424  : 94; 
 425  : 93; 
 426  : 93; 
 427  : 93; 
 428  : 93; 
 429  : 93; 
 42A  : 93; 
 42B  : 93; 
 42C  : 93; 
 42D  : 93; 
 42E  : 93; 
 42F  : 92; 
 430  : 92; 
 431  : 92; 
 432  : 92; 
 433  : 92; 
 434  : 92; 
 435  : 92; 
 436  : 92; 
 437  : 92; 
 438  : 92; 
 439  : 91; 
 43A  : 91; 
 43B  : 91; 
 43C  : 91; 
 43D  : 91; 
 43E  : 91; 
 43F  : 91; 
 440  : 91; 
 441  : 91; 
 442  : 91; 
 443  : 90; 
 444  : 90; 
 445  : 90; 
 446  : 90; 
 447  : 90; 
 448  : 90; 
 449  : 90; 
 44A  : 90; 
 44B  : 90; 
 44C  : 90; 
 44D  : 89; 
 44E  : 89; 
 44F  : 89; 
 450  : 89; 
 451  : 89; 
 452  : 89; 
 453  : 89; 
 454  : 89; 
 455  : 89; 
 456  : 89; 
 457  : 88; 
 458  : 88; 
 459  : 88; 
 45A  : 88; 
 45B  : 88; 
 45C  : 88; 
 45D  : 88; 
 45E  : 88; 
 45F  : 88; 
 460  : 87; 
 461  : 87; 
 462  : 87; 
 463  : 87; 
 464  : 87; 
 465  : 87; 
 466  : 87; 
 467  : 87; 
 468  : 87; 
 469  : 87; 
 46A  : 87; 
 46B  : 86; 
 46C  : 86; 
 46D  : 86; 
 46E  : 86; 
 46F  : 86; 
 470  : 86; 
 471  : 86; 
 472  : 86; 
 473  : 86; 
 474  : 85; 
 475  : 85; 
 476  : 85; 
 477  : 85; 
 478  : 85; 
 479  : 85; 
 47A  : 85; 
 47B  : 85; 
 47C  : 85; 
 47D  : 85; 
 47E  : 84; 
 47F  : 84; 
 480  : 84; 
 481  : 84; 
 482  : 84; 
 483  : 84; 
 484  : 84; 
 485  : 84; 
 486  : 84; 
 487  : 84; 
 488  : 84; 
 489  : 83; 
 48A  : 83; 
 48B  : 83; 
 48C  : 83; 
 48D  : 83; 
 48E  : 83; 
 48F  : 83; 
 490  : 83; 
 491  : 83; 
 492  : 82; 
 493  : 82; 
 494  : 82; 
 495  : 82; 
 496  : 82; 
 497  : 82; 
 498  : 82; 
 499  : 82; 
 49A  : 82; 
 49B  : 82; 
 49C  : 82; 
 49D  : 81; 
 49E  : 81; 
 49F  : 81; 
 4A0  : 81; 
 4A1  : 81; 
 4A2  : 81; 
 4A3  : 81; 
 4A4  : 81; 
 4A5  : 81; 
 4A6  : 81; 
 4A7  : 80; 
 4A8  : 80; 
 4A9  : 80; 
 4AA  : 80; 
 4AB  : 80; 
 4AC  : 80; 
 4AD  : 80; 
 4AE  : 80; 
 4AF  : 80; 
 4B0  : 79; 
 4B1  : 79; 
 4B2  : 79; 
 4B3  : 79; 
 4B4  : 79; 
 4B5  : 79; 
 4B6  : 79; 
 4B7  : 79; 
 4B8  : 79; 
 4B9  : 79; 
 4BA  : 78; 
 4BB  : 78; 
 4BC  : 78; 
 4BD  : 78; 
 4BE  : 78; 
 4BF  : 78; 
 4C0  : 78; 
 4C1  : 78; 
 4C2  : 78; 
 4C3  : 78; 
 4C4  : 78; 
 4C5  : 77; 
 4C6  : 77; 
 4C7  : 77; 
 4C8  : 77; 
 4C9  : 77; 
 4CA  : 77; 
 4CB  : 77; 
 4CC  : 77; 
 4CD  : 77; 
 4CE  : 76; 
 4CF  : 76; 
 4D0  : 76; 
 4D1  : 76; 
 4D2  : 76; 
 4D3  : 76; 
 4D4  : 76; 
 4D5  : 76; 
 4D6  : 76; 
 4D7  : 76; 
 4D8  : 76; 
 4D9  : 75; 
 4DA  : 75; 
 4DB  : 75; 
 4DC  : 75; 
 4DD  : 75; 
 4DE  : 75; 
 4DF  : 75; 
 4E0  : 75; 
 4E1  : 75; 
 4E2  : 74; 
 4E3  : 74; 
 4E4  : 74; 
 4E5  : 74; 
 4E6  : 74; 
 4E7  : 74; 
 4E8  : 74; 
 4E9  : 74; 
 4EA  : 74; 
 4EB  : 74; 
 4EC  : 74; 
 4ED  : 73; 
 4EE  : 73; 
 4EF  : 73; 
 4F0  : 73; 
 4F1  : 73; 
 4F2  : 73; 
 4F3  : 73; 
 4F4  : 73; 
 4F5  : 73; 
 4F6  : 73; 
 4F7  : 72; 
 4F8  : 72; 
 4F9  : 72; 
 4FA  : 72; 
 4FB  : 72; 
 4FC  : 72; 
 4FD  : 72; 
 4FE  : 72; 
 4FF  : 72; 
 500  : 72; 
 501  : 71; 
 502  : 71; 
 503  : 71; 
 504  : 71; 
 505  : 71; 
 506  : 71; 
 507  : 71; 
 508  : 71; 
 509  : 71; 
 50A  : 71; 
 50B  : 70; 
 50C  : 70; 
 50D  : 70; 
 50E  : 70; 
 50F  : 70; 
 510  : 70; 
 511  : 70; 
 512  : 70; 
 513  : 70; 
 514  : 69; 
 515  : 69; 
 516  : 69; 
 517  : 69; 
 518  : 69; 
 519  : 69; 
 51A  : 69; 
 51B  : 69; 
 51C  : 69; 
 51D  : 69; 
 51E  : 68; 
 51F  : 68; 
 520  : 68; 
 521  : 68; 
 522  : 68; 
 523  : 68; 
 524  : 68; 
 525  : 68; 
 526  : 68; 
 527  : 68; 
 528  : 67; 
 529  : 67; 
 52A  : 67; 
 52B  : 67; 
 52C  : 67; 
 52D  : 67; 
 52E  : 67; 
 52F  : 67; 
 530  : 67; 
 531  : 67; 
 532  : 67; 
 533  : 66; 
 534  : 66; 
 535  : 66; 
 536  : 66; 
 537  : 66; 
 538  : 66; 
 539  : 66; 
 53A  : 66; 
 53B  : 66; 
 53C  : 66; 
 53D  : 65; 
 53E  : 65; 
 53F  : 65; 
 540  : 65; 
 541  : 65; 
 542  : 65; 
 543  : 65; 
 544  : 65; 
 545  : 65; 
 546  : 64; 
 547  : 64; 
 548  : 64; 
 549  : 64; 
 54A  : 64; 
 54B  : 64; 
 54C  : 64; 
 54D  : 64; 
 54E  : 64; 
 54F  : 64; 
 550  : 63; 
 551  : 63; 
 552  : 63; 
 553  : 63; 
 554  : 63; 
 555  : 63; 
 556  : 63; 
 557  : 63; 
 558  : 63; 
 559  : 63; 
 55A  : 62; 
 55B  : 62; 
 55C  : 62; 
 55D  : 62; 
 55E  : 62; 
 55F  : 62; 
 560  : 62; 
 561  : 62; 
 562  : 62; 
 563  : 62; 
 564  : 61; 
 565  : 61; 
 566  : 61; 
 567  : 61; 
 568  : 61; 
 569  : 61; 
 56A  : 61; 
 56B  : 61; 
 56C  : 61; 
 56D  : 61; 
 56E  : 60; 
 56F  : 60; 
 570  : 60; 
 571  : 60; 
 572  : 60; 
 573  : 60; 
 574  : 60; 
 575  : 60; 
 576  : 60; 
 577  : 60; 
 578  : 59; 
 579  : 59; 
 57A  : 59; 
 57B  : 59; 
 57C  : 59; 
 57D  : 59; 
 57E  : 59; 
 57F  : 59; 
 580  : 59; 
 581  : 59; 
 582  : 59; 
 583  : 58; 
 584  : 58; 
 585  : 58; 
 586  : 58; 
 587  : 58; 
 588  : 58; 
 589  : 58; 
 58A  : 58; 
 58B  : 58; 
 58C  : 57; 
 58D  : 57; 
 58E  : 57; 
 58F  : 57; 
 590  : 57; 
 591  : 57; 
 592  : 57; 
 593  : 57; 
 594  : 57; 
 595  : 57; 
 596  : 56; 
 597  : 56; 
 598  : 56; 
 599  : 56; 
 59A  : 56; 
 59B  : 56; 
 59C  : 56; 
 59D  : 56; 
 59E  : 56; 
 59F  : 56; 
 5A0  : 55; 
 5A1  : 55; 
 5A2  : 55; 
 5A3  : 55; 
 5A4  : 55; 
 5A5  : 55; 
 5A6  : 55; 
 5A7  : 55; 
 5A8  : 55; 
 5A9  : 55; 
 5AA  : 55; 
 5AB  : 54; 
 5AC  : 54; 
 5AD  : 54; 
 5AE  : 54; 
 5AF  : 54; 
 5B0  : 54; 
 5B1  : 54; 
 5B2  : 54; 
 5B3  : 54; 
 5B4  : 54; 
 5B5  : 53; 
 5B6  : 53; 
 5B7  : 53; 
 5B8  : 53; 
 5B9  : 53; 
 5BA  : 53; 
 5BB  : 53; 
 5BC  : 53; 
 5BD  : 53; 
 5BE  : 52; 
 5BF  : 52; 
 5C0  : 52; 
 5C1  : 52; 
 5C2  : 52; 
 5C3  : 52; 
 5C4  : 52; 
 5C5  : 52; 
 5C6  : 52; 
 5C7  : 52; 
 5C8  : 51; 
 5C9  : 51; 
 5CA  : 51; 
 5CB  : 51; 
 5CC  : 51; 
 5CD  : 51; 
 5CE  : 51; 
 5CF  : 51; 
 5D0  : 51; 
 5D1  : 51; 
 5D2  : 51; 
 5D3  : 50; 
 5D4  : 50; 
 5D5  : 50; 
 5D6  : 50; 
 5D7  : 50; 
 5D8  : 50; 
 5D9  : 50; 
 5DA  : 50; 
 5DB  : 50; 
 5DC  : 50; 
 5DD  : 49; 
 5DE  : 49; 
 5DF  : 49; 
 5E0  : 49; 
 5E1  : 49; 
 5E2  : 49; 
 5E3  : 49; 
 5E4  : 49; 
 5E5  : 49; 
 5E6  : 49; 
 5E7  : 48; 
 5E8  : 48; 
 5E9  : 48; 
 5EA  : 48; 
 5EB  : 48; 
 5EC  : 48; 
 5ED  : 48; 
 5EE  : 48; 
 5EF  : 48; 
 5F0  : 47; 
 5F1  : 47; 
 5F2  : 47; 
 5F3  : 47; 
 5F4  : 47; 
 5F5  : 47; 
 5F6  : 47; 
 5F7  : 47; 
 5F8  : 47; 
 5F9  : 47; 
 5FA  : 46; 
 5FB  : 46; 
 5FC  : 46; 
 5FD  : 46; 
 5FE  : 46; 
 5FF  : 46; 
 600  : 46; 
 601  : 46; 
 602  : 46; 
 603  : 46; 
 604  : 46; 
 605  : 45; 
 606  : 45; 
 607  : 45; 
 608  : 45; 
 609  : 45; 
 60A  : 45; 
 60B  : 45; 
 60C  : 45; 
 60D  : 45; 
 60E  : 44; 
 60F  : 44; 
 610  : 44; 
 611  : 44; 
 612  : 44; 
 613  : 44; 
 614  : 44; 
 615  : 44; 
 616  : 44; 
 617  : 44; 
 618  : 43; 
 619  : 43; 
 61A  : 43; 
 61B  : 43; 
 61C  : 43; 
 61D  : 43; 
 61E  : 43; 
 61F  : 43; 
 620  : 43; 
 621  : 43; 
 622  : 43; 
 623  : 42; 
 624  : 42; 
 625  : 42; 
 626  : 42; 
 627  : 42; 
 628  : 42; 
 629  : 42; 
 62A  : 42; 
 62B  : 42; 
 62C  : 41; 
 62D  : 41; 
 62E  : 41; 
 62F  : 41; 
 630  : 41; 
 631  : 41; 
 632  : 41; 
 633  : 41; 
 634  : 41; 
 635  : 41; 
 636  : 40; 
 637  : 40; 
 638  : 40; 
 639  : 40; 
 63A  : 40; 
 63B  : 40; 
 63C  : 40; 
 63D  : 40; 
 63E  : 40; 
 63F  : 40; 
 640  : 39; 
 641  : 39; 
 642  : 39; 
 643  : 39; 
 644  : 39; 
 645  : 39; 
 646  : 39; 
 647  : 39; 
 648  : 39; 
 649  : 39; 
 64A  : 39; 
 64B  : 38; 
 64C  : 38; 
 64D  : 38; 
 64E  : 38; 
 64F  : 38; 
 650  : 38; 
 651  : 38; 
 652  : 38; 
 653  : 38; 
 654  : 38; 
 655  : 37; 
 656  : 37; 
 657  : 37; 
 658  : 37; 
 659  : 37; 
 65A  : 37; 
 65B  : 37; 
 65C  : 37; 
 65D  : 37; 
 65E  : 36; 
 65F  : 36; 
 660  : 36; 
 661  : 36; 
 662  : 36; 
 663  : 36; 
 664  : 36; 
 665  : 36; 
 666  : 36; 
 667  : 36; 
 668  : 35; 
 669  : 35; 
 66A  : 35; 
 66B  : 35; 
 66C  : 35; 
 66D  : 35; 
 66E  : 35; 
 66F  : 35; 
 670  : 35; 
 671  : 35; 
 672  : 34; 
 673  : 34; 
 674  : 34; 
 675  : 34; 
 676  : 34; 
 677  : 34; 
 678  : 34; 
 679  : 34; 
 67A  : 34; 
 67B  : 34; 
 67C  : 33; 
 67D  : 33; 
 67E  : 33; 
 67F  : 33; 
 680  : 33; 
 681  : 33; 
 682  : 33; 
 683  : 33; 
 684  : 33; 
 685  : 33; 
 686  : 32; 
 687  : 32; 
 688  : 32; 
 689  : 32; 
 68A  : 32; 
 68B  : 32; 
 68C  : 32; 
 68D  : 32; 
 68E  : 32; 
 68F  : 32; 
 690  : 31; 
 691  : 31; 
 692  : 31; 
 693  : 31; 
 694  : 31; 
 695  : 31; 
 696  : 31; 
 697  : 31; 
 698  : 31; 
 699  : 31; 
 69A  : 31; 
 69B  : 30; 
 69C  : 30; 
 69D  : 30; 
 69E  : 30; 
 69F  : 30; 
 6A0  : 30; 
 6A1  : 30; 
 6A2  : 30; 
 6A3  : 30; 
 6A4  : 29; 
 6A5  : 29; 
 6A6  : 29; 
 6A7  : 29; 
 6A8  : 29; 
 6A9  : 29; 
 6AA  : 29; 
 6AB  : 29; 
 6AC  : 29; 
 6AD  : 29; 
 6AE  : 28; 
 6AF  : 28; 
 6B0  : 28; 
 6B1  : 28; 
 6B2  : 28; 
 6B3  : 28; 
 6B4  : 28; 
 6B5  : 28; 
 6B6  : 28; 
 6B7  : 28; 
 6B8  : 27; 
 6B9  : 27; 
 6BA  : 27; 
 6BB  : 27; 
 6BC  : 27; 
 6BD  : 27; 
 6BE  : 27; 
 6BF  : 27; 
 6C0  : 27; 
 6C1  : 27; 
 6C2  : 26; 
 6C3  : 26; 
 6C4  : 26; 
 6C5  : 26; 
 6C6  : 26; 
 6C7  : 26; 
 6C8  : 26; 
 6C9  : 26; 
 6CA  : 26; 
 6CB  : 26; 
 6CC  : 26; 
 6CD  : 25; 
 6CE  : 25; 
 6CF  : 25; 
 6D0  : 25; 
 6D1  : 25; 
 6D2  : 25; 
 6D3  : 25; 
 6D4  : 25; 
 6D5  : 25; 
 6D6  : 24; 
 6D7  : 24; 
 6D8  : 24; 
 6D9  : 24; 
 6DA  : 24; 
 6DB  : 24; 
 6DC  : 24; 
 6DD  : 24; 
 6DE  : 24; 
 6DF  : 24; 
 6E0  : 23; 
 6E1  : 23; 
 6E2  : 23; 
 6E3  : 23; 
 6E4  : 23; 
 6E5  : 23; 
 6E6  : 23; 
 6E7  : 23; 
 6E8  : 23; 
 6E9  : 23; 
 6EA  : 22; 
 6EB  : 22; 
 6EC  : 22; 
 6ED  : 22; 
 6EE  : 22; 
 6EF  : 22; 
 6F0  : 22; 
 6F1  : 22; 
 6F2  : 22; 
 6F3  : 22; 
 6F4  : 21; 
 6F5  : 21; 
 6F6  : 21; 
 6F7  : 21; 
 6F8  : 21; 
 6F9  : 21; 
 6FA  : 21; 
 6FB  : 21; 
 6FC  : 21; 
 6FD  : 21; 
 6FE  : 20; 
 6FF  : 20; 
 700  : 20; 
 701  : 20; 
 702  : 20; 
 703  : 20; 
 704  : 20; 
 705  : 20; 
 706  : 20; 
 707  : 20; 
 708  : 19; 
 709  : 19; 
 70A  : 19; 
 70B  : 19; 
 70C  : 19; 
 70D  : 19; 
 70E  : 19; 
 70F  : 19; 
 710  : 19; 
 711  : 19; 
 712  : 18; 
 713  : 18; 
 714  : 18; 
 715  : 18; 
 716  : 18; 
 717  : 18; 
 718  : 18; 
 719  : 18; 
 71A  : 18; 
 71B  : 18; 
 71C  : 17; 
 71D  : 17; 
 71E  : 17; 
 71F  : 17; 
 720  : 17; 
 721  : 17; 
 722  : 17; 
 723  : 17; 
 724  : 17; 
 725  : 17; 
 726  : 16; 
 727  : 16; 
 728  : 16; 
 729  : 16; 
 72A  : 16; 
 72B  : 16; 
 72C  : 16; 
 72D  : 16; 
 72E  : 16; 
 72F  : 16; 
 730  : 15; 
 731  : 15; 
 732  : 15; 
 733  : 15; 
 734  : 15; 
 735  : 15; 
 736  : 15; 
 737  : 15; 
 738  : 15; 
 739  : 15; 
 73A  : 14; 
 73B  : 14; 
 73C  : 14; 
 73D  : 14; 
 73E  : 14; 
 73F  : 14; 
 740  : 14; 
 741  : 14; 
 742  : 14; 
 743  : 14; 
 744  : 14; 
 745  : 13; 
 746  : 13; 
 747  : 13; 
 748  : 13; 
 749  : 13; 
 74A  : 13; 
 74B  : 13; 
 74C  : 13; 
 74D  : 13; 
 74E  : 12; 
 74F  : 12; 
 750  : 12; 
 751  : 12; 
 752  : 12; 
 753  : 12; 
 754  : 12; 
 755  : 12; 
 756  : 12; 
 757  : 12; 
 758  : 11; 
 759  : 11; 
 75A  : 11; 
 75B  : 11; 
 75C  : 11; 
 75D  : 11; 
 75E  : 11; 
 75F  : 11; 
 760  : 11; 
 761  : 11; 
 762  : 10; 
 763  : 10; 
 764  : 10; 
 765  : 10; 
 766  : 10; 
 767  : 10; 
 768  : 10; 
 769  : 10; 
 76A  : 10; 
 76B  : 10; 
 76C  : 9; 
 76D  : 9; 
 76E  : 9; 
 76F  : 9; 
 770  : 9; 
 771  : 9; 
 772  : 9; 
 773  : 9; 
 774  : 9; 
 775  : 9; 
 776  : 9; 
 777  : 8; 
 778  : 8; 
 779  : 8; 
 77A  : 8; 
 77B  : 8; 
 77C  : 8; 
 77D  : 8; 
 77E  : 8; 
 77F  : 8; 
 780  : 7; 
 781  : 7; 
 782  : 7; 
 783  : 7; 
 784  : 7; 
 785  : 7; 
 786  : 7; 
 787  : 7; 
 788  : 7; 
 789  : 7; 
 78A  : 6; 
 78B  : 6; 
 78C  : 6; 
 78D  : 6; 
 78E  : 6; 
 78F  : 6; 
 790  : 6; 
 791  : 6; 
 792  : 6; 
 793  : 6; 
 794  : 5; 
 795  : 5; 
 796  : 5; 
 797  : 5; 
 798  : 5; 
 799  : 5; 
 79A  : 5; 
 79B  : 5; 
 79C  : 5; 
 79D  : 5; 
 79E  : 5; 
 79F  : 4; 
 7A0  : 4; 
 7A1  : 4; 
 7A2  : 4; 
 7A3  : 4; 
 7A4  : 4; 
 7A5  : 4; 
 7A6  : 4; 
 7A7  : 4; 
 7A8  : 4; 
 7A9  : 3; 
 7AA  : 3; 
 7AB  : 3; 
 7AC  : 3; 
 7AD  : 3; 
 7AE  : 3; 
 7AF  : 3; 
 7B0  : 3; 
 7B1  : 3; 
 7B2  : 3; 
 7B3  : 2; 
 7B4  : 2; 
 7B5  : 2; 
 7B6  : 2; 
 7B7  : 2; 
 7B8  : 2; 
 7B9  : 2; 
 7BA  : 2; 
 7BB  : 2; 
 7BC  : 1; 
 7BD  : 1; 
 7BE  : 1; 
 7BF  : 1; 
 7C0  : 1; 
 7C1  : 1; 
 7C2  : 1; 
 7C3  : 1; 
 7C4  : 1; 
 7C5  : 1; 
 7C6  : 1; 
 7C7  : 0; 
 7C8  : 0; 
 7C9  : 0; 
 7CA  : 0; 
 7CB  : 0; 
 7CC  : 0; 
 7CD  : 0; 
 7CE  : 0; 
 7CF  : 0; 
END ; 
